                                  MODFLOW-LGR      
      U.S. GEOLOGICAL SURVEY MODULAR FINITE-DIFFERENCE GROUNDWATER FLOW MODEL
                  VERSION GWM-2005 1.3 012611,FROM MF-LGR V1.2


     FINAL FLOW PROCESS SIMULATION FOR GWM                                                                                                                                                                   


 REWOUND ..\data\STORAGE\storage.ba6
 FILE TYPE:BAS6   UNIT    8

 REWOUND ..\data\STORAGE\storage.lpf
 FILE TYPE:LPF   UNIT   11

 REWOUND ..\data\STORAGE\storage.wel
 FILE TYPE:WEL   UNIT   12

 REWOUND ..\data\STORAGE\storage.drn
 FILE TYPE:DRN   UNIT   13

 REWOUND ..\data\STORAGE\storage.rch
 FILE TYPE:RCH   UNIT   18

 REWOUND ..\data\STORAGE\storage.sip
 FILE TYPE:SIP   UNIT   19

 REWOUND ..\data\STORAGE\storage.oc
 FILE TYPE:OC   UNIT   22

 REWOUND ..\data\STORAGE\storage.dis
 FILE TYPE:DIS   UNIT   10

 REWOUND ..\data\STORAGE\storage.gwm
 FILE TYPE:GWM   UNIT   20

 REWOUND storage.gwmwell
 FILE TYPE:DATA   UNIT   75

 BAS -- BASIC PACKAGE, VERSION 7, 5/2/2005 INPUT READ FROM UNIT    8

 DISCRETIZATION INPUT DATA READ FROM UNIT   10
 # STORAGE sample problem - add 5 stress periods to TWRI
    3 LAYERS        15 ROWS        15 COLUMNS
    6 STRESS PERIOD(S) IN SIMULATION
 MODEL TIME UNIT IS DAYS
 MODEL LENGTH UNIT IS FEET
  Confining bed flag for each layer:
   1   1   0

                     DELR =   5000.00    

                     DELC =   5000.00    

 TOP ELEVATION OF LAYER 1 =   200.000    

   MODEL LAYER BOTTOM EL. =  -150.000     FOR LAYER   1

 BOT. EL. OF QUASI-3D BED =  -200.000     FOR LAYER   1

   MODEL LAYER BOTTOM EL. =  -300.000     FOR LAYER   2

 BOT. EL. OF QUASI-3D BED =  -350.000     FOR LAYER   2

   MODEL LAYER BOTTOM EL. =  -450.000     FOR LAYER   3


 STRESS PERIOD     LENGTH       TIME STEPS     MULTIPLIER FOR DELT    SS FLAG
 ----------------------------------------------------------------------------
        1         1.000000          1                    1.000         SS
        2         3650.000         20                    1.250         TR
        3         3650.000         20                    1.250         TR
        4         3650.000         20                    1.250         TR
        5         3650.000         20                    1.250         TR
        6         3650.000         20                    1.250         TR

 COMBINED STEADY-STATE AND TRANSIENT SIMULATION



 
 #SAMPLE----3 LAYERS, 15 ROWS, 15 COLUMNS; STEADY STATE; CONSTANT HEADS COLUMN 1 
 #LAYERS 1 AND 2; RECHARGE, WELLS AND DRAINS                                     



                     BOUNDARY ARRAY FOR LAYER   1
 READING ON UNIT    8 WITH FORMAT: (20I4)              

        1   2   3   4   5   6   7   8   9  10  11  12  13  14  15
 ................................................................
   1   -1   1   1   1   1   1   1   1   1   1   1   1   1   1   1
   2   -1   1   1   1   1   1   1   1   1   1   1   1   1   1   1
   3   -1   1   1   1   1   1   1   1   1   1   1   1   1   1   1
   4   -1   1   1   1   1   1   1   1   1   1   1   1   1   1   1
   5   -1   1   1   1   1   1   1   1   1   1   1   1   1   1   1
   6   -1   1   1   1   1   1   1   1   1   1   1   1   1   1   1
   7   -1   1   1   1   1   1   1   1   1   1   1   1   1   1   1
   8   -1   1   1   1   1   1   1   1   1   1   1   1   1   1   1
   9   -1   1   1   1   1   1   1   1   1   1   1   1   1   1   1
  10   -1   1   1   1   1   1   1   1   1   1   1   1   1   1   1
  11   -1   1   1   1   1   1   1   1   1   1   1   1   1   1   1
  12   -1   1   1   1   1   1   1   1   1   1   1   1   1   1   1
  13   -1   1   1   1   1   1   1   1   1   1   1   1   1   1   1
  14   -1   1   1   1   1   1   1   1   1   1   1   1   1   1   1
  15   -1   1   1   1   1   1   1   1   1   1   1   1   1   1   1



                     BOUNDARY ARRAY FOR LAYER   2
 READING ON UNIT    8 WITH FORMAT: (20I4)              

        1   2   3   4   5   6   7   8   9  10  11  12  13  14  15
 ................................................................
   1   -1   1   1   1   1   1   1   1   1   1   1   1   1   1   1
   2   -1   1   1   1   1   1   1   1   1   1   1   1   1   1   1
   3   -1   1   1   1   1   1   1   1   1   1   1   1   1   1   1
   4   -1   1   1   1   1   1   1   1   1   1   1   1   1   1   1
   5   -1   1   1   1   1   1   1   1   1   1   1   1   1   1   1
   6   -1   1   1   1   1   1   1   1   1   1   1   1   1   1   1
   7   -1   1   1   1   1   1   1   1   1   1   1   1   1   1   1
   8   -1   1   1   1   1   1   1   1   1   1   1   1   1   1   1
   9   -1   1   1   1   1   1   1   1   1   1   1   1   1   1   1
  10   -1   1   1   1   1   1   1   1   1   1   1   1   1   1   1
  11   -1   1   1   1   1   1   1   1   1   1   1   1   1   1   1
  12   -1   1   1   1   1   1   1   1   1   1   1   1   1   1   1
  13   -1   1   1   1   1   1   1   1   1   1   1   1   1   1   1
  14   -1   1   1   1   1   1   1   1   1   1   1   1   1   1   1
  15   -1   1   1   1   1   1   1   1   1   1   1   1   1   1   1

           BOUNDARY ARRAY =              1 FOR LAYER   3

 AQUIFER HEAD WILL BE SET TO  999.99     AT ALL NO-FLOW NODES (IBOUND=0).

             INITIAL HEAD =   0.00000     FOR LAYER   1

             INITIAL HEAD =   0.00000     FOR LAYER   2

             INITIAL HEAD =   0.00000     FOR LAYER   3

 OUTPUT CONTROL IS SPECIFIED ONLY AT TIME STEPS FOR WHICH OUTPUT IS DESIRED
 HEAD PRINT FORMAT CODE IS  20    DRAWDOWN PRINT FORMAT CODE IS   0
 HEADS WILL BE SAVED ON UNIT    0    DRAWDOWNS WILL BE SAVED ON UNIT    0

 LPF -- LAYER-PROPERTY FLOW PACKAGE, VERSION 7, 5/2/2005
         INPUT READ FROM UNIT   11
 #LPF Input for sample problem STORAGE
 #Constructed to mimic behavior of BC6 file input for original TWRI problem
 #Vertical conductivity in layers is very large so VKCB controls conductance
 HEAD AT CELLS THAT CONVERT TO DRY=  1.00000E+30
 No named parameters

   LAYER FLAGS:
 LAYER       LAYTYP        LAYAVG         CHANI        LAYVKA        LAYWET
 ---------------------------------------------------------------------------
    1             1             0     1.000E+00             1             0
    2             0             0     1.000E+00             1             0
    3             0             0     1.000E+00             1             0

   INTERPRETATION OF LAYER FLAGS:
                        INTERBLOCK     HORIZONTAL    DATA IN
         LAYER TYPE   TRANSMISSIVITY   ANISOTROPY   ARRAY VKA   WETTABILITY
 LAYER      (LAYTYP)      (LAYAVG)       (CHANI)      (LAYVKA)      (LAYWET)
 ---------------------------------------------------------------------------
    1   CONVERTIBLE      HARMONIC     1.000E+00    ANISOTROPY  NON-WETTABLE
    2      CONFINED      HARMONIC     1.000E+00    ANISOTROPY  NON-WETTABLE
    3      CONFINED      HARMONIC     1.000E+00    ANISOTROPY  NON-WETTABLE

 WETTING CAPABILITY IS NOT ACTIVE IN ANY LAYER

    HYD. COND. ALONG ROWS =   86.4000     FOR LAYER   1

  HORIZ. TO VERTICAL ANI. =  1.000000E-04 FOR LAYER   1

         SPECIFIC STORAGE =  1.000000E-05 FOR LAYER   1

           SPECIFIC YIELD =  0.150000     FOR LAYER   1

 QUASI3D VERT. HYD. COND. =  8.640000E-02 FOR LAYER   1

    HYD. COND. ALONG ROWS =   8.64000     FOR LAYER   2

  HORIZ. TO VERTICAL ANI. =  1.000000E-04 FOR LAYER   2

         SPECIFIC STORAGE =  1.000000E-05 FOR LAYER   2

 QUASI3D VERT. HYD. COND. =  4.320000E-02 FOR LAYER   2

    HYD. COND. ALONG ROWS =   17.2800     FOR LAYER   3

  HORIZ. TO VERTICAL ANI. =  1.000000E-04 FOR LAYER   3

         SPECIFIC STORAGE =  1.000000E-05 FOR LAYER   3

 WEL -- WELL PACKAGE, VERSION 7, 5/2/2005 INPUT READ FROM UNIT   12
 #  Convert:  -4.32E5 ft3/day = -5 ft3/sec
 #  Reduce by 10X to match recharge reduction
 No named parameters
 MAXIMUM OF     15 ACTIVE WELLS AT ONE TIME


     0 Well parameters

 DRN -- DRAIN PACKAGE, VERSION 7, 5/2/2005 INPUT READ FROM UNIT   13
 # STORAGE Sample problem - convert 8.64E4 ft3/day = 1 ft3/sec
 No named parameters
 MAXIMUM OF      9 ACTIVE DRAINS AT ONE TIME


     0 Drain parameters

 RCH -- RECHARGE PACKAGE, VERSION 7, 5/2/2005 INPUT READ FROM UNIT   18
 # STORAGE Sample problem
 # Convert: 3.E-8 ft/sec = 2.592E-3 ft/day
 # Reduce recharge by 10X to simulate arid environment
 No named parameters
 OPTION 1 -- RECHARGE TO TOP LAYER


     0 Recharge parameters
1
                            STRESS PERIOD NO.    1, LENGTH =   1.000000    
                            -----------------------------------------------

                              NUMBER OF TIME STEPS =     1

                               MULTIPLIER FOR DELT =     1.000

                            INITIAL TIME STEP SIZE =   1.000000    

 WELL NO.  LAYER   ROW   COL   STRESS RATE         
 --------------------------------------------------
      1      3      5     11     -0.4320E+05
      2      2      4      6     -0.4320E+05
      3      2      6     12     -0.4320E+05
      4      1      9      8     -0.4320E+05
      5      1      9     10     -0.4320E+05
      6      1      9     12     -0.4320E+05
      7      1      9     14     -0.4320E+05
      8      1     11      8     -0.4320E+05
      9      1     11     10     -0.4320E+05
     10      1     11     12     -0.4320E+05
     11      1     11     14     -0.4320E+05
     12      1     13      8     -0.4320E+05
     13      1     13     10     -0.4320E+05
     14      1     13     12     -0.4320E+05
     15      1     13     14     -0.4320E+05

     15 WELLS

 DRAIN NO.  LAYER   ROW   COL     DRAIN EL.  CONDUCTANCE         
 ----------------------------------------------------------------
      1      1      8      2       0.000          0.8640E+05
      2      1      8      3       0.000          0.8640E+05
      3      1      8      4       10.00          0.8640E+05
      4      1      8      5       20.00          0.8640E+05
      5      1      8      6       30.00          0.8640E+05
      6      1      8      7       50.00          0.8640E+05
      7      1      8      8       70.00          0.8640E+05
      8      1      8      9       90.00          0.8640E+05
      9      1      8     10       100.0          0.8640E+05

      9 DRAINS

                 RECHARGE =  2.592000E-04
 
 SOLVING FOR HEAD 

    31 ITERATIONS FOR TIME STEP   1 IN STRESS PERIOD    1

 MAXIMUM HEAD CHANGE FOR EACH ITERATION:

    HEAD CHANGE   HEAD CHANGE   HEAD CHANGE   HEAD CHANGE   HEAD CHANGE
  LAYER,ROW,COL LAYER,ROW,COL LAYER,ROW,COL LAYER,ROW,COL LAYER,ROW,COL
 ----------------------------------------------------------------------
     -2.241         1.257         1.404         5.092         4.533    
  (  3,  5, 11) (  1,  1, 15) (  3,  1, 14) (  1,  1, 15) (  3,  1, 14)
     0.1916        0.1749        0.7981         1.045         3.210    
  (  1,  8, 15) (  3,  8, 15) (  1, 10, 15) (  3,  7, 15) (  1, 15, 15)
     0.5570E-01    0.9846E-01    0.1270        0.5514        0.7719    
  (  3,  8,  3) (  1, 10, 15) (  3,  9, 14) (  1, 13, 15) (  3,  1, 15)
     0.3489E-01    0.2864E-01    0.1126        0.1370        0.4066    
  (  1, 15, 15) (  3, 15, 15) (  1, 14, 15) (  3, 11, 15) (  1, 15, 15)
     0.6576E-02    0.1241E-01    0.1604E-01    0.7143E-01    0.9941E-01
  (  3,  8,  3) (  1, 13, 15) (  3, 10, 14) (  1, 13, 15) (  3,  1, 15)
     0.4610E-02    0.3791E-02    0.1486E-01    0.1800E-01    0.5296E-01
  (  1, 15, 15) (  3, 15, 15) (  1, 15, 15) (  3, 11, 15) (  1, 15, 15)
     0.8539E-03
  (  3,  8,  3)


 OUTPUT CONTROL FOR STRESS PERIOD    1   TIME STEP   1
    PRINT HEAD FOR ALL LAYERS
1
              HEAD IN LAYER   1 AT END OF TIME STEP   1 IN STRESS PERIOD    1
  ---------------------------------------------------------------------------

            1           2           3           4           5           6
            7           8           9          10          11          12
           13          14          15
 ........................................................................
   1    0.000       3.091       5.739       8.026       10.01       11.74    
        13.28       14.61       15.74       16.68       17.46       18.09    
        18.58       18.92       19.09    
   2    0.000       3.051       5.661       7.908       9.844       11.53    
        13.08       14.43       15.55       16.46       17.22       17.85    
        18.35       18.70       18.88    
   3    0.000       2.970       5.507       7.680       9.512       11.06    
        12.69       14.07       15.16       16.02       16.72       17.36    
        17.90       18.28       18.48    
   4    0.000       2.844       5.281       7.370       9.058       10.18    
        12.16       13.59       14.63       15.37       15.90       16.59    
        17.22       17.67       17.90    
   5    0.000       2.650       4.966       7.045       8.830       10.32    
        11.86       13.10       14.01       14.55       14.69       15.52    
        16.35       16.89       17.16    
   6    0.000       2.319       4.455       6.594       8.491       10.08    
        11.45       12.55       13.37       13.91       14.16       14.29    
        15.40       16.01       16.30    
   7    0.000       1.708       3.496       5.960       8.039       9.669    
        10.93       11.88       12.64       13.18       13.60       13.97    
        14.61       15.07       15.35    
   8    0.000      0.5251       1.336       5.266       7.617       9.218    
        10.30       11.00       11.72       12.17       12.71       13.06    
        13.61       13.93       14.29    
   9    0.000       1.603       3.280       5.614       7.519       8.878    
        9.661       9.660       10.69       10.66       11.61       11.53    
        12.44       12.33       13.19    
  10    0.000       2.119       4.047       5.951       7.549       8.708    
        9.383       9.649       10.25       10.51       11.09       11.32    
        11.87       12.06       12.53    
  11    0.000       2.368       4.399       6.174       7.608       8.617    
        9.109       8.857       9.740       9.601       10.51       10.36    
        11.24       11.07       11.95    
  12    0.000       2.492       4.580       6.318       7.685       8.641    
        9.155       9.297       9.805       10.00       10.53       10.72    
        11.22       11.37       11.83    
  13    0.000       2.558       4.681       6.417       7.766       8.705    
        9.169       8.923       9.773       9.621       10.48       10.31    
        11.14       10.93       11.76    
  14    0.000       2.593       4.740       6.487       7.852       8.841    
        9.471       9.819       10.30       10.58       11.02       11.26    
        11.64       11.81       12.09    
  15    0.000       2.609       4.768       6.526       7.906       8.934    
        9.655       10.16       10.61       10.98       11.35       11.65    
        11.94       12.15       12.32    
1
              HEAD IN LAYER   2 AT END OF TIME STEP   1 IN STRESS PERIOD    1
  ---------------------------------------------------------------------------

            1           2           3           4           5           6
            7           8           9          10          11          12
           13          14          15
 ........................................................................
   1    0.000       3.072       5.714       8.001       9.983       11.72    
        13.25       14.59       15.72       16.66       17.43       18.07    
        18.56       18.89       19.06    
   2    0.000       3.032       5.636       7.883       9.819       11.51    
        13.06       14.40       15.52       16.44       17.20       17.83    
        18.33       18.68       18.86    
   3    0.000       2.951       5.482       7.654       9.485       11.02    
        12.67       14.04       15.14       16.00       16.69       17.34    
        17.88       18.26       18.46    
   4    0.000       2.824       5.255       7.343       9.012       9.411    
        12.12       13.56       14.60       15.33       15.82       16.56    
        17.20       17.65       17.87    
   5    0.000       2.630       4.941       7.020       8.803       10.28    
        11.83       13.07       13.98       14.47       14.09       15.43    
        16.32       16.87       17.14    
   6    0.000       2.300       4.431       6.569       8.465       10.06    
        11.43       12.53       13.35       13.87       14.07       13.51    
        15.35       15.99       16.28    
   7    0.000       1.699       3.493       5.937       8.014       9.644    
        10.90       11.85       12.61       13.15       13.57       13.92    
        14.58       15.05       15.33    
   8    0.000      0.6551       1.648       5.261       7.594       9.194    
        10.28       10.98       11.70       12.16       12.69       13.04    
        13.59       13.91       14.27    
   9    0.000       1.594       3.277       5.592       7.494       8.854    
        9.645       9.755       10.68       10.76       11.60       11.62    
        12.44       12.42       13.17    
  10    0.000       2.100       4.023       5.927       7.525       8.684    
        9.362       9.641       10.23       10.50       11.07       11.31    
        11.85       12.05       12.51    
  11    0.000       2.348       4.374       6.149       7.584       8.594    
        9.093       8.954       9.733       9.698       10.50       10.46    
        11.23       11.17       11.94    
  12    0.000       2.473       4.555       6.293       7.661       8.617    
        9.134       9.289       9.786       9.993       10.51       10.71    
        11.20       11.37       11.81    
  13    0.000       2.538       4.656       6.392       7.742       8.681    
        9.153       9.019       9.766       9.717       10.47       10.41    
        11.13       11.03       11.74    
  14    0.000       2.574       4.715       6.463       7.828       8.817    
        9.449       9.803       10.28       10.57       11.00       11.24    
        11.61       11.79       12.07    
  15    0.000       2.590       4.743       6.501       7.882       8.910    
        9.631       10.14       10.59       10.96       11.32       11.62    
        11.92       12.13       12.30    
1
              HEAD IN LAYER   3 AT END OF TIME STEP   1 IN STRESS PERIOD    1
  ---------------------------------------------------------------------------

            1           2           3           4           5           6
            7           8           9          10          11          12
           13          14          15
 ........................................................................
   1   0.2259       3.053       5.680       7.967       9.950       11.68    
        13.22       14.56       15.69       16.63       17.40       18.04    
        18.53       18.86       19.03    
   2   0.2229       3.012       5.602       7.849       9.785       11.47    
        13.03       14.37       15.49       16.41       17.16       17.80    
        18.30       18.65       18.83    
   3   0.2169       2.931       5.448       7.620       9.449       10.97    
        12.63       14.01       15.11       15.97       16.65       17.30    
        17.85       18.23       18.43    
   4   0.2074       2.805       5.222       7.308       8.961       9.689    
        12.07       13.53       14.57       15.29       15.70       16.51    
        17.17       17.62       17.84    
   5   0.1926       2.610       4.908       6.986       8.766       10.23    
        11.80       13.04       13.94       14.35       12.75       15.28    
        16.28       16.84       17.11    
   6   0.1676       2.280       4.400       6.536       8.432       10.02    
        11.40       12.49       13.31       13.82       13.92       13.78    
        15.30       15.96       16.25    
   7   0.1246       1.694       3.496       5.909       7.981       9.612    
        10.87       11.82       12.58       13.12       13.52       13.87    
        14.55       15.02       15.30    
   8   6.8628E-02  0.8223       2.028       5.262       7.563       9.162    
        10.25       10.96       11.67       12.14       12.66       13.02    
        13.56       13.90       14.24    
   9   0.1168       1.589       3.281       5.564       7.462       8.823    
        9.627       9.869       10.67       10.87       11.59       11.73    
        12.43       12.53       13.16    
  10   0.1528       2.080       3.993       5.894       7.492       8.652    
        9.334       9.636       10.21       10.50       11.05       11.31    
        11.83       12.05       12.49    
  11   0.1717       2.327       4.342       6.115       7.551       8.563    
        9.075       9.070       9.728       9.814       10.49       10.57    
        11.23       11.28       11.92    
  12   0.1813       2.452       4.522       6.260       7.628       8.586    
        9.106       9.284       9.763       9.988       10.49       10.70    
        11.18       11.36       11.78    
  13   0.1863       2.518       4.623       6.359       7.710       8.651    
        9.135       9.133       9.760       9.832       10.47       10.52    
        11.12       11.14       11.73    
  14   0.1890       2.553       4.682       6.429       7.795       8.785    
        9.419       9.785       10.25       10.55       10.97       11.22    
        11.59       11.77       12.04    
  15   0.1902       2.569       4.710       6.468       7.849       8.878    
        9.600       10.11       10.56       10.93       11.29       11.59    
        11.89       12.10       12.26    
1
  VOLUMETRIC BUDGET FOR ENTIRE MODEL AT END OF TIME STEP  1 IN STRESS PERIOD   1
  ------------------------------------------------------------------------------

     CUMULATIVE VOLUMES      L**3       RATES FOR THIS TIME STEP      L**3/T
     ------------------                 ------------------------

           IN:                                      IN:
           ---                                      ---
             STORAGE =           0.0000               STORAGE =           0.0000
       CONSTANT HEAD =           0.0000         CONSTANT HEAD =           0.0000
               WELLS =           0.0000                 WELLS =           0.0000
              DRAINS =           0.0000                DRAINS =           0.0000
            RECHARGE =     1360800.0000              RECHARGE =     1360800.0000
        MANAGED FLOW =           0.0000          MANAGED FLOW =           0.0000

            TOTAL IN =     1360800.0000              TOTAL IN =     1360800.0000

          OUT:                                     OUT:
          ----                                     ----
             STORAGE =           0.0000               STORAGE =           0.0000
       CONSTANT HEAD =      550957.9247         CONSTANT HEAD =      550957.9247
               WELLS =      648000.0000                 WELLS =      648000.0000
              DRAINS =      160810.6832                DRAINS =      160810.6832
            RECHARGE =           0.0000              RECHARGE =           0.0000
        MANAGED FLOW =           0.0000          MANAGED FLOW =           0.0000

           TOTAL OUT =     1359768.6079             TOTAL OUT =     1359768.6079

            IN - OUT =        1031.3921              IN - OUT =        1031.3921

 PERCENT DISCREPANCY =           0.08     PERCENT DISCREPANCY =           0.08






          TIME SUMMARY AT END OF TIME STEP   1 IN STRESS PERIOD    1
                    SECONDS     MINUTES      HOURS       DAYS        YEARS
                    -----------------------------------------------------------
   TIME STEP LENGTH  86400.      1440.0      24.000      1.0000     2.73785E-03
 STRESS PERIOD TIME  86400.      1440.0      24.000      1.0000     2.73785E-03
         TOTAL TIME  86400.      1440.0      24.000      1.0000     2.73785E-03
1
1
                            STRESS PERIOD NO.    2, LENGTH =   3650.000    
                            -----------------------------------------------

                              NUMBER OF TIME STEPS =    20

                               MULTIPLIER FOR DELT =     1.250

                            INITIAL TIME STEP SIZE =   10.64312    

 WELL NO.  LAYER   ROW   COL   STRESS RATE         
 --------------------------------------------------
      1      1      9      8     -0.4320E+05
      2      1      9     10     -0.4320E+05
      3      1      9     12     -0.4320E+05
      4      1      9     14     -0.4320E+05
      5      1     11     10     -0.4320E+05
      6      1     11     14     -0.4320E+05
      7      1     13      8     -0.4320E+05
      8      1     13     10     -0.4320E+05
      9      1     13     12     -0.4320E+05
     10      1     13     14     -0.4320E+05

     10 WELLS

 REUSING NON-PARAMETER DRAINS FROM LAST STRESS PERIOD

      9 DRAINS

 REUSING RECH FROM LAST STRESS PERIOD
 
 SOLVING FOR HEAD 

     4 ITERATIONS FOR TIME STEP   1 IN STRESS PERIOD    2

 MAXIMUM HEAD CHANGE FOR EACH ITERATION:

    HEAD CHANGE   HEAD CHANGE   HEAD CHANGE   HEAD CHANGE   HEAD CHANGE
  LAYER,ROW,COL LAYER,ROW,COL LAYER,ROW,COL LAYER,ROW,COL LAYER,ROW,COL
 ----------------------------------------------------------------------
     -2.981       -0.2079E-01   -0.2850E-02   -0.1048E-03
  (  3, 11,  8) (  2, 12,  8) (  3, 12,  7) (  3, 12,  7)


 NO OUTPUT CONTROL FOR STRESS PERIOD    2   TIME STEP   1
 
 SOLVING FOR HEAD 
     3 ITERATIONS FOR TIME STEP   2 IN STRESS PERIOD    2

 MAXIMUM HEAD CHANGE FOR EACH ITERATION:

    HEAD CHANGE   HEAD CHANGE   HEAD CHANGE   HEAD CHANGE   HEAD CHANGE
  LAYER,ROW,COL LAYER,ROW,COL LAYER,ROW,COL LAYER,ROW,COL LAYER,ROW,COL
 ----------------------------------------------------------------------
    -0.3771       -0.4538E-02   -0.5092E-03
  (  3, 11,  8) (  3, 11,  7) (  3, 10,  8)


 NO OUTPUT CONTROL FOR STRESS PERIOD    2   TIME STEP   2
 
 SOLVING FOR HEAD 
     3 ITERATIONS FOR TIME STEP   3 IN STRESS PERIOD    2

 MAXIMUM HEAD CHANGE FOR EACH ITERATION:

    HEAD CHANGE   HEAD CHANGE   HEAD CHANGE   HEAD CHANGE   HEAD CHANGE
  LAYER,ROW,COL LAYER,ROW,COL LAYER,ROW,COL LAYER,ROW,COL LAYER,ROW,COL
 ----------------------------------------------------------------------
    -0.7040E-01   -0.3155E-02   -0.2843E-03
  (  3, 11,  8) (  3, 10,  8) (  3, 10,  8)


 NO OUTPUT CONTROL FOR STRESS PERIOD    2   TIME STEP   3
 
 SOLVING FOR HEAD 
     3 ITERATIONS FOR TIME STEP   4 IN STRESS PERIOD    2

 MAXIMUM HEAD CHANGE FOR EACH ITERATION:

    HEAD CHANGE   HEAD CHANGE   HEAD CHANGE   HEAD CHANGE   HEAD CHANGE
  LAYER,ROW,COL LAYER,ROW,COL LAYER,ROW,COL LAYER,ROW,COL LAYER,ROW,COL
 ----------------------------------------------------------------------
    -0.5261E-01   -0.3761E-02   -0.3570E-03
  (  1, 11,  8) (  3, 10,  8) (  3, 10,  8)


 NO OUTPUT CONTROL FOR STRESS PERIOD    2   TIME STEP   4
 
 SOLVING FOR HEAD 
     3 ITERATIONS FOR TIME STEP   5 IN STRESS PERIOD    2

 MAXIMUM HEAD CHANGE FOR EACH ITERATION:

    HEAD CHANGE   HEAD CHANGE   HEAD CHANGE   HEAD CHANGE   HEAD CHANGE
  LAYER,ROW,COL LAYER,ROW,COL LAYER,ROW,COL LAYER,ROW,COL LAYER,ROW,COL
 ----------------------------------------------------------------------
    -0.5328E-01   -0.4806E-02   -0.5069E-03
  (  1, 11,  8) (  2, 10,  8) (  3, 10,  8)


 NO OUTPUT CONTROL FOR STRESS PERIOD    2   TIME STEP   5
 
 SOLVING FOR HEAD 
     3 ITERATIONS FOR TIME STEP   6 IN STRESS PERIOD    2

 MAXIMUM HEAD CHANGE FOR EACH ITERATION:

    HEAD CHANGE   HEAD CHANGE   HEAD CHANGE   HEAD CHANGE   HEAD CHANGE
  LAYER,ROW,COL LAYER,ROW,COL LAYER,ROW,COL LAYER,ROW,COL LAYER,ROW,COL
 ----------------------------------------------------------------------
    -0.5269E-01   -0.6170E-02   -0.7207E-03
  (  1, 11,  8) (  2, 10,  8) (  3, 10,  8)


 NO OUTPUT CONTROL FOR STRESS PERIOD    2   TIME STEP   6
 
 SOLVING FOR HEAD 
     4 ITERATIONS FOR TIME STEP   7 IN STRESS PERIOD    2

 MAXIMUM HEAD CHANGE FOR EACH ITERATION:

    HEAD CHANGE   HEAD CHANGE   HEAD CHANGE   HEAD CHANGE   HEAD CHANGE
  LAYER,ROW,COL LAYER,ROW,COL LAYER,ROW,COL LAYER,ROW,COL LAYER,ROW,COL
 ----------------------------------------------------------------------
    -0.5103E-01   -0.8067E-02   -0.1016E-02   -0.3926E-04
  (  1, 11,  8) (  2, 11,  8) (  3, 10,  8) (  3,  5, 13)


 NO OUTPUT CONTROL FOR STRESS PERIOD    2   TIME STEP   7
 
 SOLVING FOR HEAD 
     4 ITERATIONS FOR TIME STEP   8 IN STRESS PERIOD    2

 MAXIMUM HEAD CHANGE FOR EACH ITERATION:

    HEAD CHANGE   HEAD CHANGE   HEAD CHANGE   HEAD CHANGE   HEAD CHANGE
  LAYER,ROW,COL LAYER,ROW,COL LAYER,ROW,COL LAYER,ROW,COL LAYER,ROW,COL
 ----------------------------------------------------------------------
    -0.4856E-01   -0.1031E-01   -0.1421E-02   -0.6091E-04
  (  1, 11,  8) (  2, 11,  8) (  3, 10,  8) (  3,  6, 13)


 NO OUTPUT CONTROL FOR STRESS PERIOD    2   TIME STEP   8
 
 SOLVING FOR HEAD 
     4 ITERATIONS FOR TIME STEP   9 IN STRESS PERIOD    2

 MAXIMUM HEAD CHANGE FOR EACH ITERATION:

    HEAD CHANGE   HEAD CHANGE   HEAD CHANGE   HEAD CHANGE   HEAD CHANGE
  LAYER,ROW,COL LAYER,ROW,COL LAYER,ROW,COL LAYER,ROW,COL LAYER,ROW,COL
 ----------------------------------------------------------------------
    -0.4562E-01   -0.1286E-01   -0.1971E-02   -0.9986E-04
  (  1, 11,  8) (  2, 11,  8) (  3, 10,  8) (  3, 12, 10)


 NO OUTPUT CONTROL FOR STRESS PERIOD    2   TIME STEP   9
 
 SOLVING FOR HEAD 
     4 ITERATIONS FOR TIME STEP  10 IN STRESS PERIOD    2

 MAXIMUM HEAD CHANGE FOR EACH ITERATION:

    HEAD CHANGE   HEAD CHANGE   HEAD CHANGE   HEAD CHANGE   HEAD CHANGE
  LAYER,ROW,COL LAYER,ROW,COL LAYER,ROW,COL LAYER,ROW,COL LAYER,ROW,COL
 ----------------------------------------------------------------------
    -0.4248E-01   -0.1566E-01   -0.2714E-02   -0.1643E-03
  (  1, 11,  8) (  2, 11,  8) (  3, 10,  8) (  3, 11, 11)


 NO OUTPUT CONTROL FOR STRESS PERIOD    2   TIME STEP  10
 
 SOLVING FOR HEAD 
     4 ITERATIONS FOR TIME STEP  11 IN STRESS PERIOD    2

 MAXIMUM HEAD CHANGE FOR EACH ITERATION:

    HEAD CHANGE   HEAD CHANGE   HEAD CHANGE   HEAD CHANGE   HEAD CHANGE
  LAYER,ROW,COL LAYER,ROW,COL LAYER,ROW,COL LAYER,ROW,COL LAYER,ROW,COL
 ----------------------------------------------------------------------
    -0.3936E-01   -0.1868E-01   -0.3751E-02   -0.2721E-03
  (  1, 11,  8) (  2, 11,  8) (  3, 10,  9) (  3, 11, 11)


 NO OUTPUT CONTROL FOR STRESS PERIOD    2   TIME STEP  11
 
 SOLVING FOR HEAD 
     4 ITERATIONS FOR TIME STEP  12 IN STRESS PERIOD    2

 MAXIMUM HEAD CHANGE FOR EACH ITERATION:

    HEAD CHANGE   HEAD CHANGE   HEAD CHANGE   HEAD CHANGE   HEAD CHANGE
  LAYER,ROW,COL LAYER,ROW,COL LAYER,ROW,COL LAYER,ROW,COL LAYER,ROW,COL
 ----------------------------------------------------------------------
    -0.3639E-01   -0.2189E-01   -0.5184E-02   -0.4491E-03
  (  1, 11,  8) (  2, 11,  8) (  3, 10,  9) (  3, 11, 12)


 NO OUTPUT CONTROL FOR STRESS PERIOD    2   TIME STEP  12
 
 SOLVING FOR HEAD 
     4 ITERATIONS FOR TIME STEP  13 IN STRESS PERIOD    2

 MAXIMUM HEAD CHANGE FOR EACH ITERATION:

    HEAD CHANGE   HEAD CHANGE   HEAD CHANGE   HEAD CHANGE   HEAD CHANGE
  LAYER,ROW,COL LAYER,ROW,COL LAYER,ROW,COL LAYER,ROW,COL LAYER,ROW,COL
 ----------------------------------------------------------------------
    -0.3365E-01   -0.2564E-01   -0.7088E-02   -0.7435E-03
  (  1, 11,  8) (  2, 11,  9) (  3, 10,  9) (  3, 11, 12)


 NO OUTPUT CONTROL FOR STRESS PERIOD    2   TIME STEP  13
 
 SOLVING FOR HEAD 
     5 ITERATIONS FOR TIME STEP  14 IN STRESS PERIOD    2

 MAXIMUM HEAD CHANGE FOR EACH ITERATION:

    HEAD CHANGE   HEAD CHANGE   HEAD CHANGE   HEAD CHANGE   HEAD CHANGE
  LAYER,ROW,COL LAYER,ROW,COL LAYER,ROW,COL LAYER,ROW,COL LAYER,ROW,COL
 ----------------------------------------------------------------------
    -0.3183E-01   -0.3008E-01   -0.9610E-02   -0.1228E-02   -0.1480E-03
  (  1, 11,  9) (  2, 10,  9) (  3,  9, 10) (  3, 11, 12) (  3, 12,  9)


 NO OUTPUT CONTROL FOR STRESS PERIOD    2   TIME STEP  14
 
 SOLVING FOR HEAD 
     5 ITERATIONS FOR TIME STEP  15 IN STRESS PERIOD    2

 MAXIMUM HEAD CHANGE FOR EACH ITERATION:

    HEAD CHANGE   HEAD CHANGE   HEAD CHANGE   HEAD CHANGE   HEAD CHANGE
  LAYER,ROW,COL LAYER,ROW,COL LAYER,ROW,COL LAYER,ROW,COL LAYER,ROW,COL
 ----------------------------------------------------------------------
    -0.3020E-01   -0.3474E-01   -0.1311E-01   -0.2028E-02   -0.2185E-03
  (  1, 11,  9) (  2, 10,  9) (  3,  9, 10) (  3, 11, 12) (  3, 14,  9)


 NO OUTPUT CONTROL FOR STRESS PERIOD    2   TIME STEP  15
 
 SOLVING FOR HEAD 
     5 ITERATIONS FOR TIME STEP  16 IN STRESS PERIOD    2

 MAXIMUM HEAD CHANGE FOR EACH ITERATION:

    HEAD CHANGE   HEAD CHANGE   HEAD CHANGE   HEAD CHANGE   HEAD CHANGE
  LAYER,ROW,COL LAYER,ROW,COL LAYER,ROW,COL LAYER,ROW,COL LAYER,ROW,COL
 ----------------------------------------------------------------------
    -0.2895E-01   -0.3989E-01   -0.1745E-01   -0.3354E-02   -0.3498E-03
  (  1, 10, 10) (  2,  9, 10) (  3,  9, 10) (  3, 10, 12) (  3, 14,  9)


 NO OUTPUT CONTROL FOR STRESS PERIOD    2   TIME STEP  16
 
 SOLVING FOR HEAD 
     5 ITERATIONS FOR TIME STEP  17 IN STRESS PERIOD    2

 MAXIMUM HEAD CHANGE FOR EACH ITERATION:

    HEAD CHANGE   HEAD CHANGE   HEAD CHANGE   HEAD CHANGE   HEAD CHANGE
  LAYER,ROW,COL LAYER,ROW,COL LAYER,ROW,COL LAYER,ROW,COL LAYER,ROW,COL
 ----------------------------------------------------------------------
    -0.2799E-01   -0.4486E-01   -0.2269E-01   -0.5514E-02   -0.5685E-03
  (  1, 10, 10) (  2,  9, 10) (  3,  8, 10) (  3, 10, 12) (  3, 14,  9)


 NO OUTPUT CONTROL FOR STRESS PERIOD    2   TIME STEP  17
 
 SOLVING FOR HEAD 
     5 ITERATIONS FOR TIME STEP  18 IN STRESS PERIOD    2

 MAXIMUM HEAD CHANGE FOR EACH ITERATION:

    HEAD CHANGE   HEAD CHANGE   HEAD CHANGE   HEAD CHANGE   HEAD CHANGE
  LAYER,ROW,COL LAYER,ROW,COL LAYER,ROW,COL LAYER,ROW,COL LAYER,ROW,COL
 ----------------------------------------------------------------------
    -0.2697E-01   -0.4942E-01   -0.2896E-01   -0.8942E-02   -0.9599E-03
  (  1,  9, 10) (  2,  9, 11) (  3,  8, 11) (  3, 10, 12) (  3, 10,  9)


 NO OUTPUT CONTROL FOR STRESS PERIOD    2   TIME STEP  18
 
 SOLVING FOR HEAD 
     6 ITERATIONS FOR TIME STEP  19 IN STRESS PERIOD    2

 MAXIMUM HEAD CHANGE FOR EACH ITERATION:

    HEAD CHANGE   HEAD CHANGE   HEAD CHANGE   HEAD CHANGE   HEAD CHANGE
  LAYER,ROW,COL LAYER,ROW,COL LAYER,ROW,COL LAYER,ROW,COL LAYER,ROW,COL
 ----------------------------------------------------------------------
    -0.2770E-01   -0.5391E-01   -0.3617E-01   -0.1421E-01   -0.1723E-02
  (  1,  8, 15) (  2,  9, 12) (  3,  8, 12) (  3, 10, 13) (  3,  8, 10)
    -0.2833E-03
  (  1, 15, 15)


 NO OUTPUT CONTROL FOR STRESS PERIOD    2   TIME STEP  19
 
 SOLVING FOR HEAD 
     6 ITERATIONS FOR TIME STEP  20 IN STRESS PERIOD    2

 MAXIMUM HEAD CHANGE FOR EACH ITERATION:

    HEAD CHANGE   HEAD CHANGE   HEAD CHANGE   HEAD CHANGE   HEAD CHANGE
  LAYER,ROW,COL LAYER,ROW,COL LAYER,ROW,COL LAYER,ROW,COL LAYER,ROW,COL
 ----------------------------------------------------------------------
    -0.3016E-01   -0.6030E-01   -0.4428E-01   -0.2208E-01   -0.3115E-02
  (  1, 15, 15) (  2,  9, 14) (  3,  8, 13) (  3, 10, 13) (  3,  9, 11)
    -0.4689E-03
  (  1, 15, 15)


 OUTPUT CONTROL FOR STRESS PERIOD    2   TIME STEP  20
    PRINT HEAD FOR ALL LAYERS
1
              HEAD IN LAYER   1 AT END OF TIME STEP  20 IN STRESS PERIOD    2
  ---------------------------------------------------------------------------

            1           2           3           4           5           6
            7           8           9          10          11          12
           13          14          15
 ........................................................................
   1    0.000       3.007       5.573       7.778       9.682       11.35    
        12.86       14.18       15.30       16.22       17.00       17.64    
        18.15       18.50       18.68    
   2    0.000       2.964       5.486       7.640       9.481       11.09    
        12.62       13.95       15.06       15.96       16.71       17.35    
        17.88       18.26       18.46    
   3    0.000       2.878       5.318       7.378       9.076       10.49    
        12.14       13.53       14.61       15.44       16.10       16.77    
        17.36       17.78       18.01    
   4    0.000       2.750       5.083       7.041       8.535       9.313    
        11.51       12.98       14.00       14.65       15.09       15.84    
        16.57       17.10       17.36    
   5    0.000       2.561       4.780       6.740       8.379       9.718    
        11.26       12.48       13.31       13.70       13.57       14.54    
        15.57       16.24       16.57    
   6    0.000       2.244       4.292       6.325       8.103       9.588    
        10.90       11.93       12.67       13.07       13.13       13.06    
        14.52       15.31       15.68    
   7    0.000       1.654       3.371       5.722       7.686       9.209    
        10.38       11.25       11.93       12.38       12.71       13.04    
        13.81       14.38       14.72    
   8    0.000      0.5089       1.286       5.049       7.270       8.751    
        9.723       10.33       10.99       11.39       11.89       12.24    
        12.86       13.26       13.66    
   9    0.000       1.551       3.157       5.374       7.149       8.366    
        9.000       8.872       9.874       9.842       10.78       10.71    
        11.70       11.65       12.56    
  10    0.000       2.049       3.894       5.689       7.148       8.132    
        8.587       8.640       9.304       9.624       10.20       10.42    
        11.08       11.38       11.91    
  11    0.000       2.291       4.236       5.901       7.193       8.000    
        8.185       7.606       8.668       8.665       9.568       9.474    
        10.42       10.39       11.34    
  12    0.000       2.415       4.418       6.054       7.294       8.083    
        8.386       8.323       8.906       9.171       9.709       9.888    
        10.50       10.76       11.26    
  13    0.000       2.483       4.527       6.173       7.415       8.230    
        8.560       8.205       9.055       8.923       9.800       9.647    
        10.53       10.39       11.25    
  14    0.000       2.522       4.595       6.262       7.537       8.430    
        8.969       9.247       9.703       9.992       10.44       10.70    
        11.11       11.32       11.63    
  15    0.000       2.540       4.629       6.312       7.612       8.558    
        9.203       9.654       10.08       10.44       10.82       11.14    
        11.46       11.70       11.88    
1
              HEAD IN LAYER   2 AT END OF TIME STEP  20 IN STRESS PERIOD    2
  ---------------------------------------------------------------------------

            1           2           3           4           5           6
            7           8           9          10          11          12
           13          14          15
 ........................................................................
   1    0.000       2.988       5.547       7.752       9.656       11.33    
        12.83       14.15       15.27       16.20       16.97       17.61    
        18.12       18.48       18.66    
   2    0.000       2.944       5.460       7.614       9.455       11.07    
        12.59       13.93       15.04       15.94       16.68       17.33    
        17.86       18.23       18.43    
   3    0.000       2.859       5.292       7.351       9.047       10.43    
        12.11       13.50       14.59       15.41       16.07       16.74    
        17.33       17.76       17.98    
   4    0.000       2.730       5.057       7.013       8.478       8.190    
        11.45       12.96       13.97       14.61       14.99       15.80    
        16.54       17.07       17.34    
   5    0.000       2.542       4.755       6.714       8.350       9.661    
        11.23       12.45       13.28       13.59       12.69       14.40    
        15.53       16.22       16.54    
   6    0.000       2.225       4.268       6.299       8.077       9.561    
        10.87       11.90       12.64       13.03       12.99       11.93    
        14.46       15.28       15.65    
   7    0.000       1.644       3.366       5.698       7.660       9.183    
        10.35       11.22       11.91       12.36       12.68       12.98    
        13.78       14.36       14.69    
   8    0.000      0.6341       1.586       5.043       7.246       8.725    
        9.698       10.31       10.97       11.38       11.87       12.22    
        12.84       13.24       13.63    
   9    0.000       1.541       3.153       5.351       7.123       8.341    
        8.981       8.959       9.862       9.935       10.77       10.79    
        11.69       11.75       12.55    
  10    0.000       2.030       3.870       5.663       7.122       8.105    
        8.550       8.535       9.267       9.610       10.17       10.33    
        11.05       11.37       11.89    
  11    0.000       2.271       4.210       5.875       7.166       7.967    
        8.072       6.370       8.563       8.746       9.471       8.540    
        10.32       10.48       11.33    
  12    0.000       2.395       4.392       6.028       7.268       8.056    
        8.348       8.218       8.870       9.158       9.674       9.791    
        10.47       10.75       11.24    
  13    0.000       2.463       4.501       6.147       7.390       8.204    
        8.541       8.292       9.043       9.017       9.788       9.733    
        10.52       10.48       11.23    
  14    0.000       2.502       4.569       6.236       7.512       8.405    
        8.944       9.229       9.680       9.974       10.41       10.68    
        11.09       11.30       11.60    
  15    0.000       2.521       4.603       6.286       7.586       8.532    
        9.178       9.628       10.05       10.42       10.79       11.11    
        11.44       11.67       11.85    
1
              HEAD IN LAYER   3 AT END OF TIME STEP  20 IN STRESS PERIOD    2
  ---------------------------------------------------------------------------

            1           2           3           4           5           6
            7           8           9          10          11          12
           13          14          15
 ........................................................................
   1   0.2196       2.968       5.513       7.717       9.622       11.29    
        12.80       14.12       15.24       16.17       16.94       17.58    
        18.09       18.44       18.63    
   2   0.2164       2.924       5.425       7.579       9.419       11.03    
        12.56       13.89       15.00       15.90       16.65       17.29    
        17.82       18.20       18.40    
   3   0.2100       2.838       5.258       7.316       9.007       10.37    
        12.07       13.47       14.55       15.37       16.03       16.70    
        17.30       17.73       17.95    
   4   0.2004       2.710       5.023       6.976       8.417       8.616    
        11.39       12.92       13.93       14.56       14.81       15.74    
        16.51       17.04       17.31    
   5   0.1860       2.521       4.721       6.678       8.310       9.600    
        11.19       12.41       13.23       13.42       10.71       14.20    
        15.48       16.18       16.51    
   6   0.1620       2.204       4.237       6.264       8.041       9.523    
        10.83       11.87       12.60       12.97       12.79       12.33    
        14.40       15.25       15.62    
   7   0.1205       1.639       3.368       5.669       7.626       9.148    
        10.32       11.19       11.87       12.32       12.63       12.92    
        13.74       14.32       14.66    
   8   6.6344E-02  0.7950       1.951       5.042       7.213       8.691    
        9.665       10.28       10.94       11.35       11.84       12.19    
        12.81       13.22       13.60    
   9   0.1129       1.536       3.155       5.321       7.089       8.307    
        8.956       9.057       9.851       10.05       10.76       10.89    
        11.67       11.85       12.52    
  10   0.1476       2.009       3.839       5.629       7.088       8.068    
        8.494       8.365       9.215       9.596       10.12       10.16    
        11.00       11.36       11.86    
  11   0.1660       2.249       4.177       5.841       7.131       7.921    
        7.889       4.562       8.392       8.834       9.307       6.604    
        10.16       10.58       11.31    
  12   0.1755       2.373       4.358       5.994       7.233       8.019    
        8.292       8.048       8.818       9.144       9.623       9.629    
        10.42       10.74       11.21    
  13   0.1807       2.442       4.468       6.112       7.356       8.171    
        8.517       8.391       9.032       9.128       9.777       9.833    
        10.51       10.59       11.21    
  14   0.1837       2.481       4.536       6.202       7.477       8.371    
        8.911       9.207       9.649       9.953       10.38       10.66    
        11.06       11.28       11.57    
  15   0.1851       2.500       4.570       6.252       7.552       8.498    
        9.144       9.595       10.02       10.38       10.76       11.08    
        11.40       11.64       11.82    
1
  VOLUMETRIC BUDGET FOR ENTIRE MODEL AT END OF TIME STEP 20 IN STRESS PERIOD   2
  ------------------------------------------------------------------------------

     CUMULATIVE VOLUMES      L**3       RATES FOR THIS TIME STEP      L**3/T
     ------------------                 ------------------------

           IN:                                      IN:
           ---                                      ---
             STORAGE =   424226530.5008               STORAGE =      105053.5536
       CONSTANT HEAD =           0.0000         CONSTANT HEAD =           0.0000
               WELLS =           0.0000                 WELLS =           0.0000
              DRAINS =           0.0000                DRAINS =           0.0000
            RECHARGE =  4968280800.0000              RECHARGE =     1360800.0000
        MANAGED FLOW =           0.0000          MANAGED FLOW =           0.0000

            TOTAL IN =  5392507330.5008              TOTAL IN =     1465853.5536

          OUT:                                     OUT:
          ----                                     ----
             STORAGE =       45111.3636               STORAGE =           0.0000
       CONSTANT HEAD =  1980323538.3660         CONSTANT HEAD =      534020.2081
               WELLS =  1577448000.0000                 WELLS =      432000.0000
              DRAINS =   576522785.1070                DRAINS =      155125.1939
            RECHARGE =           0.0000              RECHARGE =           0.0000
        MANAGED FLOW =  1258205077.0020          MANAGED FLOW =      344713.7197

           TOTAL OUT =  5392544511.8386             TOTAL OUT =     1465859.1218

            IN - OUT =      -37181.3378              IN - OUT =          -5.5681

 PERCENT DISCREPANCY =           0.00     PERCENT DISCREPANCY =           0.00






          TIME SUMMARY AT END OF TIME STEP  20 IN STRESS PERIOD    2
                    SECONDS     MINUTES      HOURS       DAYS        YEARS
                    -----------------------------------------------------------
   TIME STEP LENGTH 6.38077E+07 1.06346E+06  17724.      738.51      2.0219    
 STRESS PERIOD TIME 3.15360E+08 5.25600E+06  87600.      3650.0      9.9932    
         TOTAL TIME 3.15446E+08 5.25744E+06  87624.      3651.0      9.9959    
1
1
                            STRESS PERIOD NO.    3, LENGTH =   3650.000    
                            -----------------------------------------------

                              NUMBER OF TIME STEPS =    20

                               MULTIPLIER FOR DELT =     1.250

                            INITIAL TIME STEP SIZE =   10.64312    

 REUSING NON-PARAMETER WELLS FROM LAST STRESS PERIOD

     10 WELLS

 REUSING NON-PARAMETER DRAINS FROM LAST STRESS PERIOD

      9 DRAINS

 REUSING RECH FROM LAST STRESS PERIOD
 
 SOLVING FOR HEAD 

     3 ITERATIONS FOR TIME STEP   1 IN STRESS PERIOD    3

 MAXIMUM HEAD CHANGE FOR EACH ITERATION:

    HEAD CHANGE   HEAD CHANGE   HEAD CHANGE   HEAD CHANGE   HEAD CHANGE
  LAYER,ROW,COL LAYER,ROW,COL LAYER,ROW,COL LAYER,ROW,COL LAYER,ROW,COL
 ----------------------------------------------------------------------
     0.3973       -0.3272E-02   -0.4176E-03
  (  3, 11, 12) (  3, 10,  8) (  3, 11,  7)


 NO OUTPUT CONTROL FOR STRESS PERIOD    3   TIME STEP   1
 
 SOLVING FOR HEAD 
     3 ITERATIONS FOR TIME STEP   2 IN STRESS PERIOD    3

 MAXIMUM HEAD CHANGE FOR EACH ITERATION:

    HEAD CHANGE   HEAD CHANGE   HEAD CHANGE   HEAD CHANGE   HEAD CHANGE
  LAYER,ROW,COL LAYER,ROW,COL LAYER,ROW,COL LAYER,ROW,COL LAYER,ROW,COL
 ----------------------------------------------------------------------
     0.5780E-01   -0.1384E-02   -0.1130E-03
  (  3, 11, 12) (  3, 10,  8) (  3, 10,  8)


 NO OUTPUT CONTROL FOR STRESS PERIOD    3   TIME STEP   2
 
 SOLVING FOR HEAD 
     3 ITERATIONS FOR TIME STEP   3 IN STRESS PERIOD    3

 MAXIMUM HEAD CHANGE FOR EACH ITERATION:

    HEAD CHANGE   HEAD CHANGE   HEAD CHANGE   HEAD CHANGE   HEAD CHANGE
  LAYER,ROW,COL LAYER,ROW,COL LAYER,ROW,COL LAYER,ROW,COL LAYER,ROW,COL
 ----------------------------------------------------------------------
    -0.2812E-01   -0.1561E-02   -0.1259E-03
  (  1, 11,  8) (  3, 10,  8) (  3, 10,  8)


 NO OUTPUT CONTROL FOR STRESS PERIOD    3   TIME STEP   3
 
 SOLVING FOR HEAD 
     3 ITERATIONS FOR TIME STEP   4 IN STRESS PERIOD    3

 MAXIMUM HEAD CHANGE FOR EACH ITERATION:

    HEAD CHANGE   HEAD CHANGE   HEAD CHANGE   HEAD CHANGE   HEAD CHANGE
  LAYER,ROW,COL LAYER,ROW,COL LAYER,ROW,COL LAYER,ROW,COL LAYER,ROW,COL
 ----------------------------------------------------------------------
    -0.2836E-01   -0.1980E-02   -0.1790E-03
  (  1, 11,  8) (  3, 10,  8) (  3, 10,  8)


 NO OUTPUT CONTROL FOR STRESS PERIOD    3   TIME STEP   4
 
 SOLVING FOR HEAD 
     3 ITERATIONS FOR TIME STEP   5 IN STRESS PERIOD    3

 MAXIMUM HEAD CHANGE FOR EACH ITERATION:

    HEAD CHANGE   HEAD CHANGE   HEAD CHANGE   HEAD CHANGE   HEAD CHANGE
  LAYER,ROW,COL LAYER,ROW,COL LAYER,ROW,COL LAYER,ROW,COL LAYER,ROW,COL
 ----------------------------------------------------------------------
    -0.2793E-01   -0.2521E-02   -0.2591E-03
  (  1, 11,  8) (  2, 10,  8) (  3, 10,  8)


 NO OUTPUT CONTROL FOR STRESS PERIOD    3   TIME STEP   5
 
 SOLVING FOR HEAD 
     3 ITERATIONS FOR TIME STEP   6 IN STRESS PERIOD    3

 MAXIMUM HEAD CHANGE FOR EACH ITERATION:

    HEAD CHANGE   HEAD CHANGE   HEAD CHANGE   HEAD CHANGE   HEAD CHANGE
  LAYER,ROW,COL LAYER,ROW,COL LAYER,ROW,COL LAYER,ROW,COL LAYER,ROW,COL
 ----------------------------------------------------------------------
    -0.2698E-01   -0.3231E-02   -0.3743E-03
  (  1, 11,  8) (  2, 10,  8) (  3, 10,  8)


 NO OUTPUT CONTROL FOR STRESS PERIOD    3   TIME STEP   6
 
 SOLVING FOR HEAD 
     3 ITERATIONS FOR TIME STEP   7 IN STRESS PERIOD    3

 MAXIMUM HEAD CHANGE FOR EACH ITERATION:

    HEAD CHANGE   HEAD CHANGE   HEAD CHANGE   HEAD CHANGE   HEAD CHANGE
  LAYER,ROW,COL LAYER,ROW,COL LAYER,ROW,COL LAYER,ROW,COL LAYER,ROW,COL
 ----------------------------------------------------------------------
    -0.2572E-01   -0.4121E-02   -0.5380E-03
  (  1, 11,  8) (  2, 10,  8) (  3, 10,  8)


 NO OUTPUT CONTROL FOR STRESS PERIOD    3   TIME STEP   7
 
 SOLVING FOR HEAD 
     3 ITERATIONS FOR TIME STEP   8 IN STRESS PERIOD    3

 MAXIMUM HEAD CHANGE FOR EACH ITERATION:

    HEAD CHANGE   HEAD CHANGE   HEAD CHANGE   HEAD CHANGE   HEAD CHANGE
  LAYER,ROW,COL LAYER,ROW,COL LAYER,ROW,COL LAYER,ROW,COL LAYER,ROW,COL
 ----------------------------------------------------------------------
    -0.2436E-01   -0.5230E-02   -0.7693E-03
  (  1, 11,  8) (  2, 10,  8) (  3, 10,  8)


 NO OUTPUT CONTROL FOR STRESS PERIOD    3   TIME STEP   8
 
 SOLVING FOR HEAD 
     4 ITERATIONS FOR TIME STEP   9 IN STRESS PERIOD    3

 MAXIMUM HEAD CHANGE FOR EACH ITERATION:

    HEAD CHANGE   HEAD CHANGE   HEAD CHANGE   HEAD CHANGE   HEAD CHANGE
  LAYER,ROW,COL LAYER,ROW,COL LAYER,ROW,COL LAYER,ROW,COL LAYER,ROW,COL
 ----------------------------------------------------------------------
    -0.2306E-01   -0.6710E-02   -0.1094E-02   -0.5553E-04
  (  1, 11,  8) (  2, 11,  8) (  3, 10,  8) (  3, 10, 10)


 NO OUTPUT CONTROL FOR STRESS PERIOD    3   TIME STEP   9
 
 SOLVING FOR HEAD 
     4 ITERATIONS FOR TIME STEP  10 IN STRESS PERIOD    3

 MAXIMUM HEAD CHANGE FOR EACH ITERATION:

    HEAD CHANGE   HEAD CHANGE   HEAD CHANGE   HEAD CHANGE   HEAD CHANGE
  LAYER,ROW,COL LAYER,ROW,COL LAYER,ROW,COL LAYER,ROW,COL LAYER,ROW,COL
 ----------------------------------------------------------------------
    -0.2194E-01   -0.8455E-02   -0.1549E-02   -0.8705E-04
  (  1, 11,  8) (  2, 11,  8) (  3, 10,  8) (  3, 10, 10)


 NO OUTPUT CONTROL FOR STRESS PERIOD    3   TIME STEP  10
 
 SOLVING FOR HEAD 
     4 ITERATIONS FOR TIME STEP  11 IN STRESS PERIOD    3

 MAXIMUM HEAD CHANGE FOR EACH ITERATION:

    HEAD CHANGE   HEAD CHANGE   HEAD CHANGE   HEAD CHANGE   HEAD CHANGE
  LAYER,ROW,COL LAYER,ROW,COL LAYER,ROW,COL LAYER,ROW,COL LAYER,ROW,COL
 ----------------------------------------------------------------------
    -0.2100E-01   -0.1046E-01   -0.2185E-02   -0.1378E-03
  (  1, 11,  8) (  2, 11,  8) (  3, 11,  8) (  3, 10, 10)


 NO OUTPUT CONTROL FOR STRESS PERIOD    3   TIME STEP  11
 
 SOLVING FOR HEAD 
     4 ITERATIONS FOR TIME STEP  12 IN STRESS PERIOD    3

 MAXIMUM HEAD CHANGE FOR EACH ITERATION:

    HEAD CHANGE   HEAD CHANGE   HEAD CHANGE   HEAD CHANGE   HEAD CHANGE
  LAYER,ROW,COL LAYER,ROW,COL LAYER,ROW,COL LAYER,ROW,COL LAYER,ROW,COL
 ----------------------------------------------------------------------
    -0.2021E-01   -0.1274E-01   -0.3077E-02   -0.2234E-03
  (  1, 11,  8) (  2, 11,  8) (  3, 11,  8) (  3, 11, 10)


 NO OUTPUT CONTROL FOR STRESS PERIOD    3   TIME STEP  12
 
 SOLVING FOR HEAD 
     4 ITERATIONS FOR TIME STEP  13 IN STRESS PERIOD    3

 MAXIMUM HEAD CHANGE FOR EACH ITERATION:

    HEAD CHANGE   HEAD CHANGE   HEAD CHANGE   HEAD CHANGE   HEAD CHANGE
  LAYER,ROW,COL LAYER,ROW,COL LAYER,ROW,COL LAYER,ROW,COL LAYER,ROW,COL
 ----------------------------------------------------------------------
    -0.1955E-01   -0.1530E-01   -0.4305E-02   -0.3771E-03
  (  1, 11,  8) (  2, 11,  8) (  3, 11,  8) (  3, 11, 10)


 NO OUTPUT CONTROL FOR STRESS PERIOD    3   TIME STEP  13
 
 SOLVING FOR HEAD 
     4 ITERATIONS FOR TIME STEP  14 IN STRESS PERIOD    3

 MAXIMUM HEAD CHANGE FOR EACH ITERATION:

    HEAD CHANGE   HEAD CHANGE   HEAD CHANGE   HEAD CHANGE   HEAD CHANGE
  LAYER,ROW,COL LAYER,ROW,COL LAYER,ROW,COL LAYER,ROW,COL LAYER,ROW,COL
 ----------------------------------------------------------------------
    -0.1897E-01   -0.1816E-01   -0.5968E-02   -0.6595E-03
  (  1, 11,  8) (  2, 11,  8) (  3, 11,  8) (  3, 10, 11)


 NO OUTPUT CONTROL FOR STRESS PERIOD    3   TIME STEP  14
 
 SOLVING FOR HEAD 
     5 ITERATIONS FOR TIME STEP  15 IN STRESS PERIOD    3

 MAXIMUM HEAD CHANGE FOR EACH ITERATION:

    HEAD CHANGE   HEAD CHANGE   HEAD CHANGE   HEAD CHANGE   HEAD CHANGE
  LAYER,ROW,COL LAYER,ROW,COL LAYER,ROW,COL LAYER,ROW,COL LAYER,ROW,COL
 ----------------------------------------------------------------------
    -0.1931E-01   -0.2129E-01   -0.8192E-02   -0.1180E-02   -0.1847E-03
  (  1,  1, 15) (  2, 11,  8) (  3, 11,  9) (  3,  9, 12) (  3, 14,  9)


 NO OUTPUT CONTROL FOR STRESS PERIOD    3   TIME STEP  15
 
 SOLVING FOR HEAD 
     5 ITERATIONS FOR TIME STEP  16 IN STRESS PERIOD    3

 MAXIMUM HEAD CHANGE FOR EACH ITERATION:

    HEAD CHANGE   HEAD CHANGE   HEAD CHANGE   HEAD CHANGE   HEAD CHANGE
  LAYER,ROW,COL LAYER,ROW,COL LAYER,ROW,COL LAYER,ROW,COL LAYER,ROW,COL
 ----------------------------------------------------------------------
    -0.2095E-01   -0.2573E-01   -0.1140E-01   -0.2116E-02   -0.2936E-03
  (  1,  1, 15) (  2,  2, 14) (  3,  4, 13) (  3,  9, 12) (  3, 14,  9)


 NO OUTPUT CONTROL FOR STRESS PERIOD    3   TIME STEP  16
 
 SOLVING FOR HEAD 
     5 ITERATIONS FOR TIME STEP  17 IN STRESS PERIOD    3

 MAXIMUM HEAD CHANGE FOR EACH ITERATION:

    HEAD CHANGE   HEAD CHANGE   HEAD CHANGE   HEAD CHANGE   HEAD CHANGE
  LAYER,ROW,COL LAYER,ROW,COL LAYER,ROW,COL LAYER,ROW,COL LAYER,ROW,COL
 ----------------------------------------------------------------------
    -0.2236E-01   -0.3120E-01   -0.1566E-01   -0.3723E-02   -0.4724E-03
  (  1,  1, 15) (  2,  2, 14) (  3,  3, 13) (  3,  9, 12) (  3, 14,  9)


 NO OUTPUT CONTROL FOR STRESS PERIOD    3   TIME STEP  17
 
 SOLVING FOR HEAD 
     5 ITERATIONS FOR TIME STEP  18 IN STRESS PERIOD    3

 MAXIMUM HEAD CHANGE FOR EACH ITERATION:

    HEAD CHANGE   HEAD CHANGE   HEAD CHANGE   HEAD CHANGE   HEAD CHANGE
  LAYER,ROW,COL LAYER,ROW,COL LAYER,ROW,COL LAYER,ROW,COL LAYER,ROW,COL
 ----------------------------------------------------------------------
    -0.2349E-01   -0.3716E-01   -0.2095E-01   -0.6369E-02   -0.7779E-03
  (  1,  1, 15) (  2,  1, 14) (  3,  3, 13) (  3,  9, 12) (  3, 14, 10)


 NO OUTPUT CONTROL FOR STRESS PERIOD    3   TIME STEP  18
 
 SOLVING FOR HEAD 
     6 ITERATIONS FOR TIME STEP  19 IN STRESS PERIOD    3

 MAXIMUM HEAD CHANGE FOR EACH ITERATION:

    HEAD CHANGE   HEAD CHANGE   HEAD CHANGE   HEAD CHANGE   HEAD CHANGE
  LAYER,ROW,COL LAYER,ROW,COL LAYER,ROW,COL LAYER,ROW,COL LAYER,ROW,COL
 ----------------------------------------------------------------------
    -0.2469E-01   -0.4318E-01   -0.2717E-01   -0.1056E-01   -0.1375E-02
  (  1, 15, 15) (  2,  1, 14) (  3,  3, 13) (  3,  9, 13) (  3,  1, 10)
    -0.2327E-03
  (  1, 15, 15)


 NO OUTPUT CONTROL FOR STRESS PERIOD    3   TIME STEP  19
 
 SOLVING FOR HEAD 
     6 ITERATIONS FOR TIME STEP  20 IN STRESS PERIOD    3

 MAXIMUM HEAD CHANGE FOR EACH ITERATION:

    HEAD CHANGE   HEAD CHANGE   HEAD CHANGE   HEAD CHANGE   HEAD CHANGE
  LAYER,ROW,COL LAYER,ROW,COL LAYER,ROW,COL LAYER,ROW,COL LAYER,ROW,COL
 ----------------------------------------------------------------------
    -0.2594E-01   -0.4886E-01   -0.3407E-01   -0.1682E-01   -0.2488E-02
  (  1, 15, 15) (  2,  1, 14) (  3,  3, 13) (  3,  9, 13) (  3,  1, 10)
    -0.3765E-03
  (  1, 15, 15)


 OUTPUT CONTROL FOR STRESS PERIOD    3   TIME STEP  20
    PRINT HEAD FOR ALL LAYERS
1
              HEAD IN LAYER   1 AT END OF TIME STEP  20 IN STRESS PERIOD    3
  ---------------------------------------------------------------------------

            1           2           3           4           5           6
            7           8           9          10          11          12
           13          14          15
 ........................................................................
   1    0.000       2.930       5.422       7.557       9.397       11.01    
        12.46       13.74       14.82       15.72       16.47       17.09    
        17.59       17.93       18.11    
   2    0.000       2.886       5.335       7.419       9.194       10.75    
        12.22       13.51       14.58       15.45       16.17       16.80    
        17.32       17.69       17.88    
   3    0.000       2.801       5.167       7.156       8.788       10.14    
        11.74       13.08       14.13       14.92       15.56       16.21    
        16.79       17.21       17.43    
   4    0.000       2.674       4.934       6.820       8.245       8.958    
        11.10       12.53       13.50       14.13       14.54       15.28    
        16.00       16.52       16.79    
   5    0.000       2.489       4.636       6.521       8.088       9.360    
        10.84       12.01       12.81       13.17       13.01       13.97    
        15.00       15.66       15.99    
   6    0.000       2.179       4.158       6.110       7.810       9.224    
        10.47       11.46       12.16       12.53       12.57       12.50    
        13.95       14.74       15.10    
   7    0.000       1.605       3.260       5.516       7.391       8.836    
        9.939       10.76       11.41       11.84       12.16       12.48    
        13.24       13.81       14.14    
   8    0.000      0.4935       1.240       4.853       6.968       8.362    
        9.263       9.814       10.45       10.85       11.35       11.69    
        12.31       12.70       13.10    
   9    0.000       1.498       3.037       5.152       6.827       7.953    
        8.507       8.320       9.312       9.289       10.25       10.19    
        11.17       11.11       12.02    
  10    0.000       1.976       3.741       5.442       6.806       7.691    
        8.049       8.015       8.706       9.071       9.704       9.976    
        10.60       10.87       11.38    
  11    0.000       2.207       4.066       5.640       6.836       7.539    
        7.596       6.821       8.028       8.111       9.109       9.158    
        9.985       9.900       10.83    
  12    0.000       2.326       4.241       5.788       6.936       7.633    
        7.840       7.695       8.308       8.621       9.216       9.449    
        10.03       10.26       10.75    
  13    0.000       2.393       4.348       5.907       7.064       7.797    
        8.054       7.646       8.491       8.375       9.280       9.146    
        10.03       9.869       10.72    
  14    0.000       2.431       4.416       5.999       7.193       8.012    
        8.488       8.722       9.160       9.449       9.905       10.17    
        10.59       10.79       11.10    
  15    0.000       2.450       4.451       6.050       7.272       8.147    
        8.734       9.142       9.543       9.900       10.28       10.60    
        10.93       11.16       11.34    
1
              HEAD IN LAYER   2 AT END OF TIME STEP  20 IN STRESS PERIOD    3
  ---------------------------------------------------------------------------

            1           2           3           4           5           6
            7           8           9          10          11          12
           13          14          15
 ........................................................................
   1    0.000       2.911       5.396       7.531       9.371       10.98    
        12.44       13.71       14.79       15.69       16.44       17.06    
        17.56       17.91       18.09    
   2    0.000       2.867       5.309       7.393       9.168       10.72    
        12.20       13.49       14.56       15.43       16.15       16.78    
        17.30       17.67       17.86    
   3    0.000       2.782       5.141       7.130       8.759       10.09    
        11.71       13.06       14.10       14.90       15.53       16.19    
        16.77       17.19       17.41    
   4    0.000       2.655       4.909       6.792       8.188       7.836    
        11.05       12.50       13.48       14.09       14.44       15.24    
        15.97       16.49       16.76    
   5    0.000       2.470       4.610       6.495       8.059       9.304    
        10.81       11.99       12.78       13.06       12.13       13.84    
        14.96       15.64       15.96    
   6    0.000       2.160       4.134       6.085       7.784       9.197    
        10.45       11.43       12.13       12.49       12.44       11.36    
        13.89       14.71       15.07    
   7    0.000       1.595       3.255       5.493       7.365       8.810    
        9.914       10.74       11.38       11.82       12.12       12.42    
        13.21       13.79       14.12    
   8    0.000      0.6141       1.528       4.846       6.944       8.336    
        9.238       9.795       10.43       10.83       11.32       11.67    
        12.29       12.68       13.07    
   9    0.000       1.488       3.032       5.129       6.802       7.928    
        8.488       8.407       9.300       9.383       10.24       10.28    
        11.16       11.21       12.00    
  10    0.000       1.957       3.717       5.417       6.780       7.664    
        8.010       7.905       8.670       9.058       9.671       9.891    
        10.57       10.86       11.36    
  11    0.000       2.187       4.041       5.615       6.810       7.507    
        7.478       5.386       7.918       8.193       9.024       8.393    
        9.900       9.988       10.81    
  12    0.000       2.306       4.216       5.763       6.911       7.606    
        7.802       7.585       8.272       8.608       9.184       9.365    
        9.998       10.24       10.72    
  13    0.000       2.373       4.323       5.881       7.039       7.772    
        8.035       7.733       8.480       8.469       9.269       9.235    
        10.02       9.963       10.71    
  14    0.000       2.411       4.391       5.973       7.168       7.987    
        8.463       8.704       9.137       9.432       9.881       10.16    
        10.57       10.78       11.07    
  15    0.000       2.430       4.426       6.025       7.247       8.122    
        8.709       9.118       9.518       9.875       10.25       10.58    
        10.90       11.14       11.32    
1
              HEAD IN LAYER   3 AT END OF TIME STEP  20 IN STRESS PERIOD    3
  ---------------------------------------------------------------------------

            1           2           3           4           5           6
            7           8           9          10          11          12
           13          14          15
 ........................................................................
   1   0.2139       2.891       5.362       7.497       9.337       10.95    
        12.40       13.68       14.76       15.66       16.41       17.03    
        17.53       17.88       18.06    
   2   0.2107       2.847       5.275       7.358       9.133       10.68    
        12.16       13.45       14.52       15.39       16.12       16.74    
        17.26       17.63       17.83    
   3   0.2043       2.762       5.107       7.095       8.719       10.02    
        11.67       13.02       14.07       14.86       15.49       16.15    
        16.73       17.15       17.37    
   4   0.1948       2.634       4.875       6.755       8.128       8.262    
        10.98       12.47       13.44       14.04       14.27       15.18    
        15.94       16.46       16.73    
   5   0.1807       2.449       4.576       6.460       8.019       9.243    
        10.77       11.95       12.73       12.89       10.16       13.64    
        14.91       15.60       15.93    
   6   0.1572       2.139       4.103       6.050       7.749       9.160    
        10.41       11.40       12.09       12.43       12.24       11.76    
        13.83       14.67       15.04    
   7   0.1168       1.589       3.256       5.463       7.331       8.776    
        9.880       10.70       11.35       11.78       12.07       12.36    
        13.17       13.75       14.08    
   8   6.4182E-02  0.7691       1.879       4.844       6.912       8.303    
        9.206       9.773       10.40       10.81       11.29       11.65    
        12.26       12.66       13.04    
   9   0.1089       1.481       3.033       5.099       6.768       7.895    
        8.464       8.506       9.289       9.494       10.23       10.38    
        11.15       11.32       11.98    
  10   0.1422       1.935       3.686       5.383       6.746       7.628    
        7.954       7.731       8.617       9.045       9.624       9.749    
        10.52       10.85       11.33    
  11   0.1598       2.165       4.008       5.581       6.775       7.461    
        7.291       3.664       7.743       8.283       8.880       6.680    
        9.758       10.09       10.79    
  12   0.1689       2.285       4.182       5.728       6.877       7.570    
        7.746       7.410       8.219       8.595       9.137       9.222    
        9.952       10.23       10.69    
  13   0.1740       2.351       4.289       5.847       7.005       7.739    
        8.011       7.832       8.469       8.582       9.259       9.337    
        10.01       10.07       10.69    
  14   0.1769       2.390       4.358       5.939       7.134       7.953    
        8.431       8.682       9.107       9.411       9.851       10.14    
        10.54       10.75       11.04    
  15   0.1783       2.409       4.392       5.990       7.213       8.088    
        8.675       9.085       9.485       9.843       10.22       10.55    
        10.87       11.11       11.28    
1
  VOLUMETRIC BUDGET FOR ENTIRE MODEL AT END OF TIME STEP 20 IN STRESS PERIOD   3
  ------------------------------------------------------------------------------

     CUMULATIVE VOLUMES      L**3       RATES FOR THIS TIME STEP      L**3/T
     ------------------                 ------------------------

           IN:                                      IN:
           ---                                      ---
             STORAGE =   761411595.7511               STORAGE =       82848.6424
       CONSTANT HEAD =           0.0000         CONSTANT HEAD =           0.0000
               WELLS =           0.0000                 WELLS =           0.0000
              DRAINS =           0.0000                DRAINS =           0.0000
            RECHARGE =  9935200800.0000              RECHARGE =     1360800.0000
        MANAGED FLOW =           0.0000          MANAGED FLOW =           0.0000

            TOTAL IN = 10696612395.7511              TOTAL IN =     1443648.6424

          OUT:                                     OUT:
          ----                                     ----
             STORAGE =      751836.3140               STORAGE =           0.0000
       CONSTANT HEAD =  3893890691.0917         CONSTANT HEAD =      517136.4880
               WELLS =  3154248000.0000                 WELLS =      432000.0000
              DRAINS =  1131411298.9171                DRAINS =      149810.0385
            RECHARGE =           0.0000              RECHARGE =           0.0000
        MANAGED FLOW =  2516410150.4395          MANAGED FLOW =      344713.7188

           TOTAL OUT = 10696711976.7623             TOTAL OUT =     1443660.2452

            IN - OUT =      -99581.0112              IN - OUT =         -11.6028

 PERCENT DISCREPANCY =           0.00     PERCENT DISCREPANCY =           0.00






          TIME SUMMARY AT END OF TIME STEP  20 IN STRESS PERIOD    3
                    SECONDS     MINUTES      HOURS       DAYS        YEARS
                    -----------------------------------------------------------
   TIME STEP LENGTH 6.38077E+07 1.06346E+06  17724.      738.51      2.0219    
 STRESS PERIOD TIME 3.15360E+08 5.25600E+06  87600.      3650.0      9.9932    
         TOTAL TIME 6.30806E+08 1.05134E+07 1.75224E+05  7301.0      19.989    
1
1
                            STRESS PERIOD NO.    4, LENGTH =   3650.000    
                            -----------------------------------------------

                              NUMBER OF TIME STEPS =    20

                               MULTIPLIER FOR DELT =     1.250

                            INITIAL TIME STEP SIZE =   10.64312    

 REUSING NON-PARAMETER WELLS FROM LAST STRESS PERIOD

     10 WELLS

 REUSING NON-PARAMETER DRAINS FROM LAST STRESS PERIOD

      9 DRAINS

 REUSING RECH FROM LAST STRESS PERIOD
 
 SOLVING FOR HEAD 

     2 ITERATIONS FOR TIME STEP   1 IN STRESS PERIOD    4

 MAXIMUM HEAD CHANGE FOR EACH ITERATION:

    HEAD CHANGE   HEAD CHANGE   HEAD CHANGE   HEAD CHANGE   HEAD CHANGE
  LAYER,ROW,COL LAYER,ROW,COL LAYER,ROW,COL LAYER,ROW,COL LAYER,ROW,COL
 ----------------------------------------------------------------------
    -0.5106E-01   -0.4818E-03
  (  3, 11, 12) (  3, 10, 13)


 NO OUTPUT CONTROL FOR STRESS PERIOD    4   TIME STEP   1
 
 SOLVING FOR HEAD 
     2 ITERATIONS FOR TIME STEP   2 IN STRESS PERIOD    4

 MAXIMUM HEAD CHANGE FOR EACH ITERATION:

    HEAD CHANGE   HEAD CHANGE   HEAD CHANGE   HEAD CHANGE   HEAD CHANGE
  LAYER,ROW,COL LAYER,ROW,COL LAYER,ROW,COL LAYER,ROW,COL LAYER,ROW,COL
 ----------------------------------------------------------------------
    -0.8488E-02   -0.3496E-03
  (  3, 11, 12) (  3, 10, 12)


 NO OUTPUT CONTROL FOR STRESS PERIOD    4   TIME STEP   2
 
 SOLVING FOR HEAD 
     2 ITERATIONS FOR TIME STEP   3 IN STRESS PERIOD    4

 MAXIMUM HEAD CHANGE FOR EACH ITERATION:

    HEAD CHANGE   HEAD CHANGE   HEAD CHANGE   HEAD CHANGE   HEAD CHANGE
  LAYER,ROW,COL LAYER,ROW,COL LAYER,ROW,COL LAYER,ROW,COL LAYER,ROW,COL
 ----------------------------------------------------------------------
    -0.4310E-02   -0.4463E-03
  (  1, 11, 12) (  3, 10, 12)


 NO OUTPUT CONTROL FOR STRESS PERIOD    4   TIME STEP   3
 
 SOLVING FOR HEAD 
     2 ITERATIONS FOR TIME STEP   4 IN STRESS PERIOD    4

 MAXIMUM HEAD CHANGE FOR EACH ITERATION:

    HEAD CHANGE   HEAD CHANGE   HEAD CHANGE   HEAD CHANGE   HEAD CHANGE
  LAYER,ROW,COL LAYER,ROW,COL LAYER,ROW,COL LAYER,ROW,COL LAYER,ROW,COL
 ----------------------------------------------------------------------
    -0.4831E-02   -0.6211E-03
  (  1, 11, 12) (  3, 10, 12)


 NO OUTPUT CONTROL FOR STRESS PERIOD    4   TIME STEP   4
 
 SOLVING FOR HEAD 
     2 ITERATIONS FOR TIME STEP   5 IN STRESS PERIOD    4

 MAXIMUM HEAD CHANGE FOR EACH ITERATION:

    HEAD CHANGE   HEAD CHANGE   HEAD CHANGE   HEAD CHANGE   HEAD CHANGE
  LAYER,ROW,COL LAYER,ROW,COL LAYER,ROW,COL LAYER,ROW,COL LAYER,ROW,COL
 ----------------------------------------------------------------------
    -0.5387E-02   -0.8715E-03
  (  1, 11, 12) (  3, 10, 12)


 NO OUTPUT CONTROL FOR STRESS PERIOD    4   TIME STEP   5
 
 SOLVING FOR HEAD 
     3 ITERATIONS FOR TIME STEP   6 IN STRESS PERIOD    4

 MAXIMUM HEAD CHANGE FOR EACH ITERATION:

    HEAD CHANGE   HEAD CHANGE   HEAD CHANGE   HEAD CHANGE   HEAD CHANGE
  LAYER,ROW,COL LAYER,ROW,COL LAYER,ROW,COL LAYER,ROW,COL LAYER,ROW,COL
 ----------------------------------------------------------------------
    -0.5996E-02   -0.1222E-02   -0.1764E-03
  (  1, 11, 12) (  3, 10, 12) (  3, 10, 12)


 NO OUTPUT CONTROL FOR STRESS PERIOD    4   TIME STEP   6
 
 SOLVING FOR HEAD 
     3 ITERATIONS FOR TIME STEP   7 IN STRESS PERIOD    4

 MAXIMUM HEAD CHANGE FOR EACH ITERATION:

    HEAD CHANGE   HEAD CHANGE   HEAD CHANGE   HEAD CHANGE   HEAD CHANGE
  LAYER,ROW,COL LAYER,ROW,COL LAYER,ROW,COL LAYER,ROW,COL LAYER,ROW,COL
 ----------------------------------------------------------------------
    -0.6681E-02   -0.1698E-02   -0.2723E-03
  (  1, 11, 12) (  3, 10, 12) (  3, 10, 12)


 NO OUTPUT CONTROL FOR STRESS PERIOD    4   TIME STEP   7
 
 SOLVING FOR HEAD 
     3 ITERATIONS FOR TIME STEP   8 IN STRESS PERIOD    4

 MAXIMUM HEAD CHANGE FOR EACH ITERATION:

    HEAD CHANGE   HEAD CHANGE   HEAD CHANGE   HEAD CHANGE   HEAD CHANGE
  LAYER,ROW,COL LAYER,ROW,COL LAYER,ROW,COL LAYER,ROW,COL LAYER,ROW,COL
 ----------------------------------------------------------------------
    -0.7442E-02   -0.2385E-02   -0.4195E-03
  (  1, 11, 12) (  2, 11, 12) (  3, 10, 12)


 NO OUTPUT CONTROL FOR STRESS PERIOD    4   TIME STEP   8
 
 SOLVING FOR HEAD 
     3 ITERATIONS FOR TIME STEP   9 IN STRESS PERIOD    4

 MAXIMUM HEAD CHANGE FOR EACH ITERATION:

    HEAD CHANGE   HEAD CHANGE   HEAD CHANGE   HEAD CHANGE   HEAD CHANGE
  LAYER,ROW,COL LAYER,ROW,COL LAYER,ROW,COL LAYER,ROW,COL LAYER,ROW,COL
 ----------------------------------------------------------------------
    -0.8285E-02   -0.3331E-02   -0.6431E-03
  (  1, 11, 12) (  2, 11, 12) (  3, 10, 12)


 NO OUTPUT CONTROL FOR STRESS PERIOD    4   TIME STEP   9
 
 SOLVING FOR HEAD 
     3 ITERATIONS FOR TIME STEP  10 IN STRESS PERIOD    4

 MAXIMUM HEAD CHANGE FOR EACH ITERATION:

    HEAD CHANGE   HEAD CHANGE   HEAD CHANGE   HEAD CHANGE   HEAD CHANGE
  LAYER,ROW,COL LAYER,ROW,COL LAYER,ROW,COL LAYER,ROW,COL LAYER,ROW,COL
 ----------------------------------------------------------------------
    -0.9228E-02   -0.4584E-02   -0.9802E-03
  (  1, 15, 15) (  2, 11, 13) (  3, 10, 12)


 NO OUTPUT CONTROL FOR STRESS PERIOD    4   TIME STEP  10
 
 SOLVING FOR HEAD 
     4 ITERATIONS FOR TIME STEP  11 IN STRESS PERIOD    4

 MAXIMUM HEAD CHANGE FOR EACH ITERATION:

    HEAD CHANGE   HEAD CHANGE   HEAD CHANGE   HEAD CHANGE   HEAD CHANGE
  LAYER,ROW,COL LAYER,ROW,COL LAYER,ROW,COL LAYER,ROW,COL LAYER,ROW,COL
 ----------------------------------------------------------------------
    -0.1087E-01   -0.6255E-02   -0.1487E-02   -0.9847E-04
  (  1, 15, 15) (  2, 11, 13) (  3, 10, 13) (  3, 14, 14)


 NO OUTPUT CONTROL FOR STRESS PERIOD    4   TIME STEP  11
 
 SOLVING FOR HEAD 
     4 ITERATIONS FOR TIME STEP  12 IN STRESS PERIOD    4

 MAXIMUM HEAD CHANGE FOR EACH ITERATION:

    HEAD CHANGE   HEAD CHANGE   HEAD CHANGE   HEAD CHANGE   HEAD CHANGE
  LAYER,ROW,COL LAYER,ROW,COL LAYER,ROW,COL LAYER,ROW,COL LAYER,ROW,COL
 ----------------------------------------------------------------------
    -0.1264E-01   -0.8392E-02   -0.2239E-02   -0.1743E-03
  (  1, 15, 15) (  2, 11, 14) (  3, 10, 13) (  3, 14, 14)


 NO OUTPUT CONTROL FOR STRESS PERIOD    4   TIME STEP  12
 
 SOLVING FOR HEAD 
     4 ITERATIONS FOR TIME STEP  13 IN STRESS PERIOD    4

 MAXIMUM HEAD CHANGE FOR EACH ITERATION:

    HEAD CHANGE   HEAD CHANGE   HEAD CHANGE   HEAD CHANGE   HEAD CHANGE
  LAYER,ROW,COL LAYER,ROW,COL LAYER,ROW,COL LAYER,ROW,COL LAYER,ROW,COL
 ----------------------------------------------------------------------
    -0.1450E-01   -0.1109E-01   -0.3334E-02   -0.3104E-03
  (  1, 15, 15) (  2, 11, 14) (  3, 10, 13) (  3, 14, 14)


 NO OUTPUT CONTROL FOR STRESS PERIOD    4   TIME STEP  13
 
 SOLVING FOR HEAD 
     4 ITERATIONS FOR TIME STEP  14 IN STRESS PERIOD    4

 MAXIMUM HEAD CHANGE FOR EACH ITERATION:

    HEAD CHANGE   HEAD CHANGE   HEAD CHANGE   HEAD CHANGE   HEAD CHANGE
  LAYER,ROW,COL LAYER,ROW,COL LAYER,ROW,COL LAYER,ROW,COL LAYER,ROW,COL
 ----------------------------------------------------------------------
    -0.1638E-01   -0.1435E-01   -0.4894E-02   -0.5555E-03
  (  1, 15, 15) (  2, 11, 14) (  3, 10, 13) (  3, 14, 14)


 NO OUTPUT CONTROL FOR STRESS PERIOD    4   TIME STEP  14
 
 SOLVING FOR HEAD 
     4 ITERATIONS FOR TIME STEP  15 IN STRESS PERIOD    4

 MAXIMUM HEAD CHANGE FOR EACH ITERATION:

    HEAD CHANGE   HEAD CHANGE   HEAD CHANGE   HEAD CHANGE   HEAD CHANGE
  LAYER,ROW,COL LAYER,ROW,COL LAYER,ROW,COL LAYER,ROW,COL LAYER,ROW,COL
 ----------------------------------------------------------------------
    -0.1822E-01   -0.1815E-01   -0.7056E-02   -0.9951E-03
  (  1, 15, 15) (  2, 14, 14) (  3,  9, 13) (  3, 14, 14)


 NO OUTPUT CONTROL FOR STRESS PERIOD    4   TIME STEP  15
 
 SOLVING FOR HEAD 
     5 ITERATIONS FOR TIME STEP  16 IN STRESS PERIOD    4

 MAXIMUM HEAD CHANGE FOR EACH ITERATION:

    HEAD CHANGE   HEAD CHANGE   HEAD CHANGE   HEAD CHANGE   HEAD CHANGE
  LAYER,ROW,COL LAYER,ROW,COL LAYER,ROW,COL LAYER,ROW,COL LAYER,ROW,COL
 ----------------------------------------------------------------------
    -0.1994E-01   -0.2263E-01   -0.9953E-02   -0.1772E-02   -0.2388E-03
  (  1, 15, 15) (  2, 14, 14) (  3,  9, 13) (  3, 14, 14) (  3, 14, 11)


 NO OUTPUT CONTROL FOR STRESS PERIOD    4   TIME STEP  16
 
 SOLVING FOR HEAD 
     5 ITERATIONS FOR TIME STEP  17 IN STRESS PERIOD    4

 MAXIMUM HEAD CHANGE FOR EACH ITERATION:

    HEAD CHANGE   HEAD CHANGE   HEAD CHANGE   HEAD CHANGE   HEAD CHANGE
  LAYER,ROW,COL LAYER,ROW,COL LAYER,ROW,COL LAYER,ROW,COL LAYER,ROW,COL
 ----------------------------------------------------------------------
    -0.2148E-01   -0.2752E-01   -0.1368E-01   -0.3108E-02   -0.3958E-03
  (  1, 15, 15) (  2, 14, 14) (  3, 10, 13) (  3, 13, 14) (  3, 14, 11)


 NO OUTPUT CONTROL FOR STRESS PERIOD    4   TIME STEP  17
 
 SOLVING FOR HEAD 
     5 ITERATIONS FOR TIME STEP  18 IN STRESS PERIOD    4

 MAXIMUM HEAD CHANGE FOR EACH ITERATION:

    HEAD CHANGE   HEAD CHANGE   HEAD CHANGE   HEAD CHANGE   HEAD CHANGE
  LAYER,ROW,COL LAYER,ROW,COL LAYER,ROW,COL LAYER,ROW,COL LAYER,ROW,COL
 ----------------------------------------------------------------------
    -0.2275E-01   -0.3263E-01   -0.1826E-01   -0.5342E-02   -0.6638E-03
  (  1, 15, 15) (  2, 14, 14) (  3, 10, 13) (  3, 13, 14) (  3, 14, 11)


 NO OUTPUT CONTROL FOR STRESS PERIOD    4   TIME STEP  18
 
 SOLVING FOR HEAD 
     6 ITERATIONS FOR TIME STEP  19 IN STRESS PERIOD    4

 MAXIMUM HEAD CHANGE FOR EACH ITERATION:

    HEAD CHANGE   HEAD CHANGE   HEAD CHANGE   HEAD CHANGE   HEAD CHANGE
  LAYER,ROW,COL LAYER,ROW,COL LAYER,ROW,COL LAYER,ROW,COL LAYER,ROW,COL
 ----------------------------------------------------------------------
    -0.2371E-01   -0.3771E-01   -0.2359E-01   -0.8873E-02   -0.1138E-02
  (  1, 15, 15) (  2, 14, 14) (  3, 10, 13) (  3, 13, 14) (  3,  1, 10)
    -0.2120E-03
  (  1, 15, 15)


 NO OUTPUT CONTROL FOR STRESS PERIOD    4   TIME STEP  19
 
 SOLVING FOR HEAD 
     6 ITERATIONS FOR TIME STEP  20 IN STRESS PERIOD    4

 MAXIMUM HEAD CHANGE FOR EACH ITERATION:

    HEAD CHANGE   HEAD CHANGE   HEAD CHANGE   HEAD CHANGE   HEAD CHANGE
  LAYER,ROW,COL LAYER,ROW,COL LAYER,ROW,COL LAYER,ROW,COL LAYER,ROW,COL
 ----------------------------------------------------------------------
    -0.2423E-01   -0.4243E-01   -0.2950E-01   -0.1415E-01   -0.2056E-02
  (  1, 15, 15) (  2, 14, 14) (  3, 11, 14) (  3, 13, 14) (  3,  1, 11)
    -0.3338E-03
  (  1, 15, 15)


 OUTPUT CONTROL FOR STRESS PERIOD    4   TIME STEP  20
    PRINT HEAD FOR ALL LAYERS
1
              HEAD IN LAYER   1 AT END OF TIME STEP  20 IN STRESS PERIOD    4
  ---------------------------------------------------------------------------

            1           2           3           4           5           6
            7           8           9          10          11          12
           13          14          15
 ........................................................................
   1    0.000       2.870       5.305       7.386       9.173       10.74    
        12.15       13.38       14.43       15.30       16.02       16.63    
        17.11       17.45       17.62    
   2    0.000       2.827       5.218       7.248       8.971       10.48    
        11.91       13.16       14.19       15.03       15.73       16.34    
        16.84       17.21       17.39    
   3    0.000       2.743       5.052       6.986       8.566       9.871    
        11.43       12.73       13.74       14.50       15.12       15.75    
        16.31       16.73       16.94    
   4    0.000       2.618       4.822       6.653       8.024       8.687    
        10.79       12.17       13.11       13.71       14.10       14.81    
        15.52       16.03       16.29    
   5    0.000       2.436       4.528       6.358       7.871       9.092    
        10.53       11.66       12.42       12.74       12.56       13.50    
        14.51       15.17       15.49    
   6    0.000       2.132       4.060       5.955       7.598       8.959    
        10.16       11.10       11.76       12.10       12.12       12.02    
        13.47       14.24       14.60    
   7    0.000       1.570       3.182       5.371       7.183       8.572    
        9.626       10.41       11.02       11.42       11.71       12.01    
        12.76       13.32       13.64    
   8    0.000      0.4829       1.209       4.719       6.764       8.099    
        8.950       9.456       10.06       10.42       10.89       11.22    
        11.82       12.20       12.59    
   9    0.000       1.463       2.957       5.006       6.619       7.689    
        8.194       7.962       8.915       8.856       9.792       9.708    
        10.68       10.61       11.51    
  10    0.000       1.928       3.641       5.285       6.591       7.424    
        7.736       7.662       8.310       8.637       9.239       9.486    
        10.10       10.36       10.88    
  11    0.000       2.152       3.956       5.474       6.615       7.269    
        7.284       6.478       7.633       7.674       8.639       8.655    
        9.480       9.392       10.32    
  12    0.000       2.267       4.124       5.615       6.710       7.358    
        7.522       7.337       7.908       8.185       8.750       8.959    
        9.532       9.751       10.24    
  13    0.000       2.331       4.228       5.730       6.834       7.517    
        7.730       7.279       8.088       7.938       8.817       8.662    
        9.533       9.366       10.22    
  14    0.000       2.369       4.294       5.819       6.960       7.730    
        8.160       8.354       8.757       9.014       9.445       9.696    
        10.10       10.29       10.59    
  15    0.000       2.386       4.327       5.869       7.038       7.864    
        8.405       8.773       9.139       9.466       9.821       10.13    
        10.44       10.67       10.84    
1
              HEAD IN LAYER   2 AT END OF TIME STEP  20 IN STRESS PERIOD    4
  ---------------------------------------------------------------------------

            1           2           3           4           5           6
            7           8           9          10          11          12
           13          14          15
 ........................................................................
   1    0.000       2.851       5.280       7.360       9.148       10.71    
        12.12       13.36       14.40       15.27       16.00       16.60    
        17.09       17.42       17.60    
   2    0.000       2.808       5.193       7.222       8.946       10.45    
        11.88       13.13       14.17       15.01       15.71       16.32    
        16.82       17.18       17.37    
   3    0.000       2.723       5.026       6.960       8.537       9.814    
        11.40       12.70       13.71       14.48       15.09       15.72    
        16.29       16.70       16.92    
   4    0.000       2.598       4.796       6.625       7.968       7.565    
        10.73       12.15       13.09       13.67       13.99       14.77    
        15.49       16.01       16.27    
   5    0.000       2.416       4.503       6.332       7.842       9.035    
        10.50       11.63       12.39       12.64       11.68       13.37    
        14.48       15.15       15.47    
   6    0.000       2.113       4.036       5.929       7.572       8.932    
        10.13       11.08       11.74       12.06       11.99       10.89    
        13.41       14.22       14.57    
   7    0.000       1.560       3.177       5.348       7.158       8.547    
        9.601       10.38       10.99       11.39       11.67       11.95    
        12.73       13.29       13.62    
   8    0.000      0.6004       1.489       4.712       6.740       8.074    
        8.926       9.438       10.04       10.40       10.87       11.20    
        11.80       12.18       12.57    
   9    0.000       1.452       2.952       4.983       6.594       7.664    
        8.175       8.049       8.903       8.950       9.781       9.796    
        10.67       10.70       11.50    
  10    0.000       1.909       3.617       5.259       6.565       7.398    
        7.698       7.552       8.274       8.624       9.206       9.401    
        10.07       10.35       10.85    
  11    0.000       2.132       3.931       5.448       6.590       7.237    
        7.167       5.064       7.524       7.757       8.553       7.875    
        9.395       9.480       10.30    
  12    0.000       2.247       4.099       5.590       6.685       7.331    
        7.484       7.228       7.873       8.172       8.718       8.874    
        9.499       9.740       10.22    
  13    0.000       2.312       4.203       5.705       6.809       7.493    
        7.711       7.367       8.077       8.033       8.806       8.751    
        9.522       9.460       10.20    
  14    0.000       2.349       4.269       5.794       6.935       7.705    
        8.136       8.336       8.734       8.997       9.422       9.678    
        10.08       10.28       10.57    
  15    0.000       2.367       4.302       5.844       7.012       7.839    
        8.380       8.749       9.115       9.442       9.796       10.10    
        10.41       10.64       10.82    
1
              HEAD IN LAYER   3 AT END OF TIME STEP  20 IN STRESS PERIOD    4
  ---------------------------------------------------------------------------

            1           2           3           4           5           6
            7           8           9          10          11          12
           13          14          15
 ........................................................................
   1   0.2095       2.831       5.246       7.326       9.114       10.68    
        12.09       13.32       14.37       15.24       15.96       16.57    
        17.05       17.39       17.57    
   2   0.2063       2.787       5.159       7.188       8.911       10.41    
        11.85       13.10       14.13       14.98       15.67       16.28    
        16.79       17.15       17.34    
   3   0.2000       2.703       4.993       6.926       8.498       9.754    
        11.36       12.67       13.68       14.44       15.04       15.69    
        16.25       16.67       16.88    
   4   0.1906       2.577       4.763       6.589       7.908       7.992    
        10.67       12.11       13.05       13.62       13.82       14.71    
        15.46       15.97       16.24    
   5   0.1767       2.395       4.470       6.298       7.803       8.975    
        10.46       11.60       12.34       12.47       9.712       13.17    
        14.43       15.11       15.44    
   6   0.1537       2.092       4.005       5.896       7.537       8.895    
        10.10       11.04       11.70       12.01       11.79       11.29    
        13.34       14.18       14.54    
   7   0.1142       1.554       3.177       5.319       7.124       8.513    
        9.568       10.35       10.96       11.35       11.62       11.89    
        12.69       13.26       13.59    
   8   6.2701E-02  0.7514       1.831       4.710       6.708       8.041    
        8.894       9.417       10.01       10.38       10.84       11.17    
        11.77       12.16       12.54    
   9   0.1062       1.445       2.953       4.954       6.560       7.632    
        8.152       8.149       8.893       9.063       9.771       9.898    
        10.66       10.81       11.48    
  10   0.1387       1.887       3.587       5.226       6.532       7.362    
        7.642       7.379       8.222       8.612       9.159       9.256    
        10.02       10.34       10.82    
  11   0.1557       2.110       3.898       5.415       6.555       7.191    
        6.981       3.335       7.350       7.848       8.407       6.127    
        9.250       9.583       10.28    
  12   0.1646       2.225       4.066       5.556       6.651       7.295    
        7.428       7.054       7.821       8.160       8.671       8.729    
        9.452       9.730       10.19    
  13   0.1695       2.290       4.170       5.671       6.776       7.460    
        7.688       7.468       8.067       8.146       8.796       8.853    
        9.512       9.572       10.18    
  14   0.1723       2.328       4.235       5.760       6.901       7.672    
        8.105       8.315       8.704       8.977       9.392       9.657    
        10.05       10.26       10.54    
  15   0.1736       2.345       4.269       5.810       6.979       7.805    
        8.347       8.717       9.081       9.409       9.763       10.07    
        10.38       10.61       10.78    
1
  VOLUMETRIC BUDGET FOR ENTIRE MODEL AT END OF TIME STEP 20 IN STRESS PERIOD   4
  ------------------------------------------------------------------------------

     CUMULATIVE VOLUMES      L**3       RATES FOR THIS TIME STEP      L**3/T
     ------------------                 ------------------------

           IN:                                      IN:
           ---                                      ---
             STORAGE =  1030613962.4293               STORAGE =       67254.7679
       CONSTANT HEAD =           0.0000         CONSTANT HEAD =           0.0000
               WELLS =           0.0000                 WELLS =           0.0000
              DRAINS =           0.0000                DRAINS =           0.0000
            RECHARGE = 14902120800.0000              RECHARGE =     1360800.0000
        MANAGED FLOW =           0.0000          MANAGED FLOW =           0.0000

            TOTAL IN = 15932734762.4293              TOTAL IN =     1428054.7679

          OUT:                                     OUT:
          ----                                     ----
             STORAGE =      762393.3551               STORAGE =           0.0000
       CONSTANT HEAD =  5755982955.1384         CONSTANT HEAD =      505162.2467
               WELLS =  4731048000.0000                 WELLS =      432000.0000
              DRAINS =  1670518121.7572                DRAINS =      146184.8939
            RECHARGE =           0.0000              RECHARGE =           0.0000
        MANAGED FLOW =  3774615223.8770          MANAGED FLOW =      344713.7188

           TOTAL OUT = 15932926694.1277             TOTAL OUT =     1428060.8594

            IN - OUT =     -191931.6984              IN - OUT =          -6.0914

 PERCENT DISCREPANCY =           0.00     PERCENT DISCREPANCY =           0.00






          TIME SUMMARY AT END OF TIME STEP  20 IN STRESS PERIOD    4
                    SECONDS     MINUTES      HOURS       DAYS        YEARS
                    -----------------------------------------------------------
   TIME STEP LENGTH 6.38077E+07 1.06346E+06  17724.      738.51      2.0219    
 STRESS PERIOD TIME 3.15360E+08 5.25600E+06  87600.      3650.0      9.9932    
         TOTAL TIME 9.46166E+08 1.57694E+07 2.62824E+05  10951.      29.982    
1
1
                            STRESS PERIOD NO.    5, LENGTH =   3650.000    
                            -----------------------------------------------

                              NUMBER OF TIME STEPS =    20

                               MULTIPLIER FOR DELT =     1.250

                            INITIAL TIME STEP SIZE =   10.64312    

 REUSING NON-PARAMETER WELLS FROM LAST STRESS PERIOD

     10 WELLS

 REUSING NON-PARAMETER DRAINS FROM LAST STRESS PERIOD

      9 DRAINS

 REUSING RECH FROM LAST STRESS PERIOD
 
 SOLVING FOR HEAD 

     4 ITERATIONS FOR TIME STEP   1 IN STRESS PERIOD    5

 MAXIMUM HEAD CHANGE FOR EACH ITERATION:

    HEAD CHANGE   HEAD CHANGE   HEAD CHANGE   HEAD CHANGE   HEAD CHANGE
  LAYER,ROW,COL LAYER,ROW,COL LAYER,ROW,COL LAYER,ROW,COL LAYER,ROW,COL
 ----------------------------------------------------------------------
      2.442        0.1638E-01    0.2244E-02    0.8128E-04
  (  3, 11, 12) (  2, 12, 12) (  3, 12, 11) (  3, 12, 11)


 NO OUTPUT CONTROL FOR STRESS PERIOD    5   TIME STEP   1
 
 SOLVING FOR HEAD 
     3 ITERATIONS FOR TIME STEP   2 IN STRESS PERIOD    5

 MAXIMUM HEAD CHANGE FOR EACH ITERATION:

    HEAD CHANGE   HEAD CHANGE   HEAD CHANGE   HEAD CHANGE   HEAD CHANGE
  LAYER,ROW,COL LAYER,ROW,COL LAYER,ROW,COL LAYER,ROW,COL LAYER,ROW,COL
 ----------------------------------------------------------------------
     0.3352       -0.5419E-02    0.4964E-03
  (  3, 11, 12) (  3, 11,  7) (  3, 10, 12)


 NO OUTPUT CONTROL FOR STRESS PERIOD    5   TIME STEP   2
 
 SOLVING FOR HEAD 
     3 ITERATIONS FOR TIME STEP   3 IN STRESS PERIOD    5

 MAXIMUM HEAD CHANGE FOR EACH ITERATION:

    HEAD CHANGE   HEAD CHANGE   HEAD CHANGE   HEAD CHANGE   HEAD CHANGE
  LAYER,ROW,COL LAYER,ROW,COL LAYER,ROW,COL LAYER,ROW,COL LAYER,ROW,COL
 ----------------------------------------------------------------------
    -0.1352       -0.6186E-02   -0.4322E-03
  (  1, 11,  8) (  3, 11,  7) (  3, 10,  8)


 NO OUTPUT CONTROL FOR STRESS PERIOD    5   TIME STEP   3
 
 SOLVING FOR HEAD 
     3 ITERATIONS FOR TIME STEP   4 IN STRESS PERIOD    5

 MAXIMUM HEAD CHANGE FOR EACH ITERATION:

    HEAD CHANGE   HEAD CHANGE   HEAD CHANGE   HEAD CHANGE   HEAD CHANGE
  LAYER,ROW,COL LAYER,ROW,COL LAYER,ROW,COL LAYER,ROW,COL LAYER,ROW,COL
 ----------------------------------------------------------------------
    -0.1334       -0.7628E-02   -0.5883E-03
  (  1, 11,  8) (  2, 10,  8) (  3, 10,  8)


 NO OUTPUT CONTROL FOR STRESS PERIOD    5   TIME STEP   4
 
 SOLVING FOR HEAD 
     3 ITERATIONS FOR TIME STEP   5 IN STRESS PERIOD    5

 MAXIMUM HEAD CHANGE FOR EACH ITERATION:

    HEAD CHANGE   HEAD CHANGE   HEAD CHANGE   HEAD CHANGE   HEAD CHANGE
  LAYER,ROW,COL LAYER,ROW,COL LAYER,ROW,COL LAYER,ROW,COL LAYER,ROW,COL
 ----------------------------------------------------------------------
    -0.1276       -0.9347E-02   -0.8093E-03
  (  1, 11,  8) (  2, 10,  8) (  3, 10,  8)


 NO OUTPUT CONTROL FOR STRESS PERIOD    5   TIME STEP   5
 
 SOLVING FOR HEAD 
     4 ITERATIONS FOR TIME STEP   6 IN STRESS PERIOD    5

 MAXIMUM HEAD CHANGE FOR EACH ITERATION:

    HEAD CHANGE   HEAD CHANGE   HEAD CHANGE   HEAD CHANGE   HEAD CHANGE
  LAYER,ROW,COL LAYER,ROW,COL LAYER,ROW,COL LAYER,ROW,COL LAYER,ROW,COL
 ----------------------------------------------------------------------
    -0.1186       -0.1130E-01   -0.1105E-02   -0.6123E-04
  (  1, 11,  8) (  2, 10,  8) (  3, 10,  8) (  3, 10, 10)


 NO OUTPUT CONTROL FOR STRESS PERIOD    5   TIME STEP   6
 
 SOLVING FOR HEAD 
     4 ITERATIONS FOR TIME STEP   7 IN STRESS PERIOD    5

 MAXIMUM HEAD CHANGE FOR EACH ITERATION:

    HEAD CHANGE   HEAD CHANGE   HEAD CHANGE   HEAD CHANGE   HEAD CHANGE
  LAYER,ROW,COL LAYER,ROW,COL LAYER,ROW,COL LAYER,ROW,COL LAYER,ROW,COL
 ----------------------------------------------------------------------
    -0.1075       -0.1348E-01   -0.1491E-02   -0.9680E-04
  (  1, 11,  8) (  2, 10,  8) (  3, 10,  8) (  3, 10, 10)


 NO OUTPUT CONTROL FOR STRESS PERIOD    5   TIME STEP   7
 
 SOLVING FOR HEAD 
     4 ITERATIONS FOR TIME STEP   8 IN STRESS PERIOD    5

 MAXIMUM HEAD CHANGE FOR EACH ITERATION:

    HEAD CHANGE   HEAD CHANGE   HEAD CHANGE   HEAD CHANGE   HEAD CHANGE
  LAYER,ROW,COL LAYER,ROW,COL LAYER,ROW,COL LAYER,ROW,COL LAYER,ROW,COL
 ----------------------------------------------------------------------
    -0.9548E-01   -0.1599E-01   -0.1983E-02   -0.1488E-03
  (  1, 11,  8) (  2, 11,  7) (  3, 10,  8) (  3, 10, 10)


 NO OUTPUT CONTROL FOR STRESS PERIOD    5   TIME STEP   8
 
 SOLVING FOR HEAD 
     4 ITERATIONS FOR TIME STEP   9 IN STRESS PERIOD    5

 MAXIMUM HEAD CHANGE FOR EACH ITERATION:

    HEAD CHANGE   HEAD CHANGE   HEAD CHANGE   HEAD CHANGE   HEAD CHANGE
  LAYER,ROW,COL LAYER,ROW,COL LAYER,ROW,COL LAYER,ROW,COL LAYER,ROW,COL
 ----------------------------------------------------------------------
    -0.8354E-01   -0.1909E-01   -0.2598E-02   -0.2224E-03
  (  1, 11,  8) (  2, 11,  8) (  3, 10,  8) (  3, 10, 10)


 NO OUTPUT CONTROL FOR STRESS PERIOD    5   TIME STEP   9
 
 SOLVING FOR HEAD 
     4 ITERATIONS FOR TIME STEP  10 IN STRESS PERIOD    5

 MAXIMUM HEAD CHANGE FOR EACH ITERATION:

    HEAD CHANGE   HEAD CHANGE   HEAD CHANGE   HEAD CHANGE   HEAD CHANGE
  LAYER,ROW,COL LAYER,ROW,COL LAYER,ROW,COL LAYER,ROW,COL LAYER,ROW,COL
 ----------------------------------------------------------------------
    -0.7233E-01   -0.2217E-01   -0.3416E-02   -0.3234E-03
  (  1, 11,  8) (  2, 11,  8) (  3, 10,  7) (  3, 10, 10)


 NO OUTPUT CONTROL FOR STRESS PERIOD    5   TIME STEP  10
 
 SOLVING FOR HEAD 
     4 ITERATIONS FOR TIME STEP  11 IN STRESS PERIOD    5

 MAXIMUM HEAD CHANGE FOR EACH ITERATION:

    HEAD CHANGE   HEAD CHANGE   HEAD CHANGE   HEAD CHANGE   HEAD CHANGE
  LAYER,ROW,COL LAYER,ROW,COL LAYER,ROW,COL LAYER,ROW,COL LAYER,ROW,COL
 ----------------------------------------------------------------------
    -0.6212E-01   -0.2487E-01   -0.4444E-02   -0.4590E-03
  (  1, 11,  8) (  2, 11,  8) (  3, 10,  7) (  3, 10, 10)


 NO OUTPUT CONTROL FOR STRESS PERIOD    5   TIME STEP  11
 
 SOLVING FOR HEAD 
     4 ITERATIONS FOR TIME STEP  12 IN STRESS PERIOD    5

 MAXIMUM HEAD CHANGE FOR EACH ITERATION:

    HEAD CHANGE   HEAD CHANGE   HEAD CHANGE   HEAD CHANGE   HEAD CHANGE
  LAYER,ROW,COL LAYER,ROW,COL LAYER,ROW,COL LAYER,ROW,COL LAYER,ROW,COL
 ----------------------------------------------------------------------
    -0.5294E-01   -0.2748E-01   -0.5677E-02   -0.6392E-03
  (  1, 11,  8) (  2, 11,  7) (  3, 10,  7) (  3, 10, 10)


 NO OUTPUT CONTROL FOR STRESS PERIOD    5   TIME STEP  12
 
 SOLVING FOR HEAD 
     4 ITERATIONS FOR TIME STEP  13 IN STRESS PERIOD    5

 MAXIMUM HEAD CHANGE FOR EACH ITERATION:

    HEAD CHANGE   HEAD CHANGE   HEAD CHANGE   HEAD CHANGE   HEAD CHANGE
  LAYER,ROW,COL LAYER,ROW,COL LAYER,ROW,COL LAYER,ROW,COL LAYER,ROW,COL
 ----------------------------------------------------------------------
    -0.4477E-01   -0.2976E-01   -0.7121E-02   -0.8807E-03
  (  1, 11,  8) (  2, 11,  7) (  3, 10,  7) (  3, 10, 10)


 NO OUTPUT CONTROL FOR STRESS PERIOD    5   TIME STEP  13
 
 SOLVING FOR HEAD 
     5 ITERATIONS FOR TIME STEP  14 IN STRESS PERIOD    5

 MAXIMUM HEAD CHANGE FOR EACH ITERATION:

    HEAD CHANGE   HEAD CHANGE   HEAD CHANGE   HEAD CHANGE   HEAD CHANGE
  LAYER,ROW,COL LAYER,ROW,COL LAYER,ROW,COL LAYER,ROW,COL LAYER,ROW,COL
 ----------------------------------------------------------------------
    -0.3759E-01   -0.3147E-01   -0.8818E-02   -0.1213E-02   -0.1481E-03
  (  1, 11,  8) (  2, 11,  7) (  3, 11,  7) (  3, 10, 10) (  3, 14,  7)


 NO OUTPUT CONTROL FOR STRESS PERIOD    5   TIME STEP  14
 
 SOLVING FOR HEAD 
     5 ITERATIONS FOR TIME STEP  15 IN STRESS PERIOD    5

 MAXIMUM HEAD CHANGE FOR EACH ITERATION:

    HEAD CHANGE   HEAD CHANGE   HEAD CHANGE   HEAD CHANGE   HEAD CHANGE
  LAYER,ROW,COL LAYER,ROW,COL LAYER,ROW,COL LAYER,ROW,COL LAYER,ROW,COL
 ----------------------------------------------------------------------
    -0.3190E-01   -0.3254E-01   -0.1074E-01   -0.1684E-02   -0.2138E-03
  (  1, 11,  7) (  2, 11,  7) (  3, 11,  7) (  3, 10, 10) (  3, 14,  7)


 NO OUTPUT CONTROL FOR STRESS PERIOD    5   TIME STEP  15
 
 SOLVING FOR HEAD 
     5 ITERATIONS FOR TIME STEP  16 IN STRESS PERIOD    5

 MAXIMUM HEAD CHANGE FOR EACH ITERATION:

    HEAD CHANGE   HEAD CHANGE   HEAD CHANGE   HEAD CHANGE   HEAD CHANGE
  LAYER,ROW,COL LAYER,ROW,COL LAYER,ROW,COL LAYER,ROW,COL LAYER,ROW,COL
 ----------------------------------------------------------------------
    -0.2730E-01   -0.3299E-01   -0.1281E-01   -0.2369E-02   -0.3021E-03
  (  1, 11,  7) (  2, 11,  7) (  3, 11,  7) (  3, 10, 10) (  3, 14,  6)


 NO OUTPUT CONTROL FOR STRESS PERIOD    5   TIME STEP  16
 
 SOLVING FOR HEAD 
     5 ITERATIONS FOR TIME STEP  17 IN STRESS PERIOD    5

 MAXIMUM HEAD CHANGE FOR EACH ITERATION:

    HEAD CHANGE   HEAD CHANGE   HEAD CHANGE   HEAD CHANGE   HEAD CHANGE
  LAYER,ROW,COL LAYER,ROW,COL LAYER,ROW,COL LAYER,ROW,COL LAYER,ROW,COL
 ----------------------------------------------------------------------
    -0.2315E-01   -0.3286E-01   -0.1492E-01   -0.3432E-02   -0.4224E-03
  (  1, 11,  7) (  2, 11,  7) (  3, 11,  7) (  3, 11,  9) (  3, 14,  6)


 NO OUTPUT CONTROL FOR STRESS PERIOD    5   TIME STEP  17
 
 SOLVING FOR HEAD 
     5 ITERATIONS FOR TIME STEP  18 IN STRESS PERIOD    5

 MAXIMUM HEAD CHANGE FOR EACH ITERATION:

    HEAD CHANGE   HEAD CHANGE   HEAD CHANGE   HEAD CHANGE   HEAD CHANGE
  LAYER,ROW,COL LAYER,ROW,COL LAYER,ROW,COL LAYER,ROW,COL LAYER,ROW,COL
 ----------------------------------------------------------------------
    -0.2021E-01   -0.3246E-01   -0.1694E-01   -0.4931E-02   -0.5750E-03
  (  1, 15,  7) (  2, 12,  7) (  3, 12,  7) (  3, 11,  9) (  3, 14,  6)


 NO OUTPUT CONTROL FOR STRESS PERIOD    5   TIME STEP  18
 
 SOLVING FOR HEAD 
     5 ITERATIONS FOR TIME STEP  19 IN STRESS PERIOD    5

 MAXIMUM HEAD CHANGE FOR EACH ITERATION:

    HEAD CHANGE   HEAD CHANGE   HEAD CHANGE   HEAD CHANGE   HEAD CHANGE
  LAYER,ROW,COL LAYER,ROW,COL LAYER,ROW,COL LAYER,ROW,COL LAYER,ROW,COL
 ----------------------------------------------------------------------
    -0.1835E-01   -0.3205E-01   -0.1875E-01   -0.6965E-02   -0.8336E-03
  (  1, 15,  7) (  2, 14,  7) (  3, 12,  7) (  3, 11,  9) (  3,  1,  9)


 NO OUTPUT CONTROL FOR STRESS PERIOD    5   TIME STEP  19
 
 SOLVING FOR HEAD 
     6 ITERATIONS FOR TIME STEP  20 IN STRESS PERIOD    5

 MAXIMUM HEAD CHANGE FOR EACH ITERATION:

    HEAD CHANGE   HEAD CHANGE   HEAD CHANGE   HEAD CHANGE   HEAD CHANGE
  LAYER,ROW,COL LAYER,ROW,COL LAYER,ROW,COL LAYER,ROW,COL LAYER,ROW,COL
 ----------------------------------------------------------------------
    -0.1605E-01   -0.3084E-01   -0.2005E-01   -0.9729E-02   -0.1421E-02
  (  1, 15,  7) (  2, 14,  7) (  3, 12,  7) (  3,  6, 11) (  3,  1,  9)
    -0.1425E-03
  (  3,  1, 15)


 OUTPUT CONTROL FOR STRESS PERIOD    5   TIME STEP  20
    PRINT HEAD FOR ALL LAYERS
1
              HEAD IN LAYER   1 AT END OF TIME STEP  20 IN STRESS PERIOD    5
  ---------------------------------------------------------------------------

            1           2           3           4           5           6
            7           8           9          10          11          12
           13          14          15
 ........................................................................
   1    0.000       2.819       5.205       7.239       8.984       10.51    
        11.88       13.09       14.11       14.97       15.68       16.27    
        16.75       17.08       17.26    
   2    0.000       2.775       5.117       7.099       8.779       10.24    
        11.64       12.86       13.88       14.70       15.39       15.99    
        16.49       16.84       17.03    
   3    0.000       2.690       4.949       6.835       8.369       9.632    
        11.15       12.43       13.42       14.17       14.78       15.40    
        15.97       16.38       16.59    
   4    0.000       2.564       4.716       6.495       7.818       8.437    
        10.50       11.87       12.79       13.38       13.77       14.48    
        15.19       15.71       15.97    
   5    0.000       2.382       4.420       6.193       7.651       8.824    
        10.22       11.33       12.09       12.42       12.25       13.20    
        14.22       14.88       15.20    
   6    0.000       2.081       3.952       5.780       7.358       8.663    
        9.823       10.75       11.42       11.78       11.83       11.76    
        13.21       14.00       14.36    
   7    0.000       1.529       3.086       5.186       6.913       8.232    
        9.238       10.00       10.64       11.10       11.45       11.80    
        12.57       13.14       13.47    
   8    0.000      0.4676       1.162       4.517       6.449       7.690    
        8.473       8.964       9.632       10.10       10.69       11.11    
        11.74       12.12       12.50    
   9    0.000       1.402       2.820       4.750       6.238       7.183    
        7.575       7.297       8.391       8.542       9.697       9.778    
        10.75       10.65       11.52    
  10    0.000       1.842       3.458       4.981       6.143       6.803    
        6.906       6.646       7.623       8.325       9.308       9.889    
        10.39       10.53       10.98    
  11    0.000       2.053       3.750       5.142       6.127       6.565    
        6.218       4.621       6.739       7.362       8.897       9.644    
        9.991       9.647       10.47    
  12    0.000       2.163       3.912       5.283       6.237       6.714    
        6.672       6.306       7.215       7.875       8.831       9.382    
        9.848       9.945       10.37    
  13    0.000       2.228       4.020       5.413       6.400       6.964    
        7.070       6.584       7.550       7.628       8.746       8.772    
        9.661       9.463       10.29    
  14    0.000       2.268       4.094       5.519       6.563       7.246    
        7.617       7.812       8.305       8.706       9.290       9.658    
        10.11       10.31       10.61    
  15    0.000       2.288       4.132       5.581       6.661       7.415    
        7.915       8.291       8.724       9.159       9.629       10.03    
        10.39       10.64       10.82    
1
              HEAD IN LAYER   2 AT END OF TIME STEP  20 IN STRESS PERIOD    5
  ---------------------------------------------------------------------------

            1           2           3           4           5           6
            7           8           9          10          11          12
           13          14          15
 ........................................................................
   1    0.000       2.799       5.179       7.213       8.958       10.48    
        11.86       13.07       14.09       14.94       15.65       16.25    
        16.72       17.06       17.23    
   2    0.000       2.756       5.091       7.074       8.753       10.22    
        11.61       12.84       13.85       14.68       15.36       15.96    
        16.46       16.82       17.01    
   3    0.000       2.671       4.923       6.809       8.340       9.576    
        11.12       12.40       13.39       14.14       14.75       15.38    
        15.94       16.35       16.57    
   4    0.000       2.545       4.691       6.468       7.762       7.315    
        10.45       11.84       12.76       13.34       13.66       14.44    
        15.17       15.68       15.94    
   5    0.000       2.363       4.395       6.167       7.622       8.768    
        10.19       11.31       12.06       12.31       11.37       13.06    
        14.18       14.86       15.18    
   6    0.000       2.062       3.928       5.755       7.332       8.636    
        9.797       10.72       11.39       11.74       11.69       10.62    
        13.16       13.97       14.33    
   7    0.000       1.519       3.080       5.163       6.888       8.207    
        9.213       9.979       10.62       11.07       11.42       11.74    
        12.55       13.12       13.44    
   8    0.000      0.5805       1.431       4.510       6.424       7.665    
        8.449       8.946       9.609       10.09       10.67       11.09    
        11.72       12.10       12.48    
   9    0.000       1.392       2.814       4.727       6.213       7.158    
        7.556       7.384       8.380       8.637       9.688       9.872    
        10.75       10.74       11.50    
  10    0.000       1.823       3.434       4.955       6.118       6.777    
        6.867       6.525       7.586       8.314       9.287       9.873    
        10.37       10.52       10.96    
  11    0.000       2.033       3.724       5.116       6.101       6.532    
        6.089       2.725       6.619       7.450       8.880       9.622    
        9.975       9.742       10.46    
  12    0.000       2.143       3.887       5.257       6.211       6.687    
        6.633       6.186       7.178       7.864       8.810       9.366    
        9.828       9.937       10.35    
  13    0.000       2.208       3.995       5.387       6.375       6.939    
        7.051       6.672       7.539       7.724       8.737       8.868    
        9.653       9.559       10.27    
  14    0.000       2.248       4.068       5.494       6.537       7.220    
        7.593       7.794       8.282       8.690       9.267       9.642    
        10.09       10.30       10.59    
  15    0.000       2.268       4.107       5.555       6.636       7.390    
        7.890       8.267       8.700       9.135       9.605       10.01    
        10.37       10.62       10.80    
1
              HEAD IN LAYER   3 AT END OF TIME STEP  20 IN STRESS PERIOD    5
  ---------------------------------------------------------------------------

            1           2           3           4           5           6
            7           8           9          10          11          12
           13          14          15
 ........................................................................
   1   0.2056       2.779       5.146       7.179       8.924       10.45    
        11.83       13.03       14.06       14.91       15.62       16.21    
        16.69       17.03       17.20    
   2   0.2024       2.736       5.058       7.040       8.719       10.18    
        11.58       12.80       13.82       14.64       15.33       15.93    
        16.43       16.79       16.97    
   3   0.1961       2.650       4.890       6.774       8.301       9.516    
        11.09       12.37       13.36       14.11       14.71       15.34    
        15.91       16.32       16.54    
   4   0.1866       2.524       4.657       6.431       7.702       7.742    
        10.39       11.80       12.73       13.29       13.49       14.39    
        15.13       15.65       15.91    
   5   0.1728       2.341       4.361       6.133       7.583       8.708    
        10.16       11.27       12.01       12.14       9.396       12.86    
        14.13       14.82       15.15    
   6   0.1500       2.041       3.897       5.721       7.298       8.600    
        9.763       10.69       11.35       11.69       11.49       11.02    
        13.09       13.94       14.30    
   7   0.1111       1.512       3.079       5.133       6.854       8.173    
        9.180       9.946       10.58       11.04       11.37       11.68    
        12.51       13.08       13.41    
   8   6.0538E-02  0.7255       1.758       4.506       6.393       7.632    
        8.417       8.925       9.579       10.07       10.64       11.07    
        11.69       12.08       12.45    
   9   0.1017       1.384       2.813       4.697       6.179       7.125    
        7.533       7.484       8.369       8.751       9.681       9.985    
        10.74       10.85       11.49    
  10   0.1323       1.801       3.403       4.922       6.084       6.740    
        6.809       6.346       7.533       8.305       9.260       9.855    
        10.35       10.52       10.93    
  11   0.1484       2.010       3.691       5.082       6.066       6.485    
        5.897       1.317       6.440       7.550       8.860       9.593    
        9.957       9.856       10.44    
  12   0.1569       2.121       3.854       5.223       6.177       6.650    
        6.576       6.007       7.125       7.855       8.783       9.348    
        9.802       9.931       10.32    
  13   0.1618       2.186       3.962       5.353       6.341       6.905    
        7.028       6.772       7.529       7.839       8.731       8.982    
        9.647       9.672       10.26    
  14   0.1648       2.226       4.035       5.460       6.504       7.187    
        7.561       7.773       8.252       8.670       9.239       9.623    
        10.06       10.28       10.56    
  15   0.1663       2.246       4.074       5.521       6.602       7.356    
        7.857       8.234       8.667       9.103       9.573       9.975    
        10.34       10.59       10.77    
1
  VOLUMETRIC BUDGET FOR ENTIRE MODEL AT END OF TIME STEP 20 IN STRESS PERIOD   5
  ------------------------------------------------------------------------------

     CUMULATIVE VOLUMES      L**3       RATES FOR THIS TIME STEP      L**3/T
     ------------------                 ------------------------

           IN:                                      IN:
           ---                                      ---
             STORAGE =  1257541139.3720               STORAGE =       45899.7919
       CONSTANT HEAD =           0.0000         CONSTANT HEAD =           0.0000
               WELLS =           0.0000                 WELLS =           0.0000
              DRAINS =           0.0000                DRAINS =           0.0000
            RECHARGE = 19869040800.0000              RECHARGE =     1360800.0000
        MANAGED FLOW =           0.0000          MANAGED FLOW =           0.0000

            TOTAL IN = 21126581939.3720              TOTAL IN =     1406699.7919

          OUT:                                     OUT:
          ----                                     ----
             STORAGE =    25892383.0336               STORAGE =           0.0000
       CONSTANT HEAD =  7567387409.5717         CONSTANT HEAD =      489193.7658
               WELLS =  6307848000.0000                 WELLS =      432000.0000
              DRAINS =  2192894418.8136                DRAINS =      140823.2034
            RECHARGE =           0.0000              RECHARGE =           0.0000
        MANAGED FLOW =  5032820304.4434          MANAGED FLOW =      344713.7207

           TOTAL OUT = 21126842515.8623             TOTAL OUT =     1406730.6899

            IN - OUT =     -260576.4903              IN - OUT =         -30.8979

 PERCENT DISCREPANCY =           0.00     PERCENT DISCREPANCY =           0.00






          TIME SUMMARY AT END OF TIME STEP  20 IN STRESS PERIOD    5
                    SECONDS     MINUTES      HOURS       DAYS        YEARS
                    -----------------------------------------------------------
   TIME STEP LENGTH 6.38077E+07 1.06346E+06  17724.      738.51      2.0219    
 STRESS PERIOD TIME 3.15360E+08 5.25600E+06  87600.      3650.0      9.9932    
         TOTAL TIME 1.26153E+09 2.10254E+07 3.50424E+05  14601.      39.975    
1
1
                            STRESS PERIOD NO.    6, LENGTH =   3650.000    
                            -----------------------------------------------

                              NUMBER OF TIME STEPS =    20

                               MULTIPLIER FOR DELT =     1.250

                            INITIAL TIME STEP SIZE =   10.64312    

 REUSING NON-PARAMETER WELLS FROM LAST STRESS PERIOD

     10 WELLS

 REUSING NON-PARAMETER DRAINS FROM LAST STRESS PERIOD

      9 DRAINS

 REUSING RECH FROM LAST STRESS PERIOD
 
 SOLVING FOR HEAD 

     4 ITERATIONS FOR TIME STEP   1 IN STRESS PERIOD    6

 MAXIMUM HEAD CHANGE FOR EACH ITERATION:

    HEAD CHANGE   HEAD CHANGE   HEAD CHANGE   HEAD CHANGE   HEAD CHANGE
  LAYER,ROW,COL LAYER,ROW,COL LAYER,ROW,COL LAYER,ROW,COL LAYER,ROW,COL
 ----------------------------------------------------------------------
     0.6953        0.7636E-02    0.1206E-02   -0.4801E-04
  (  2, 11,  8) (  3, 10,  8) (  3, 11,  7) (  3, 10,  7)


 NO OUTPUT CONTROL FOR STRESS PERIOD    6   TIME STEP   1
 
 SOLVING FOR HEAD 
     2 ITERATIONS FOR TIME STEP   2 IN STRESS PERIOD    6

 MAXIMUM HEAD CHANGE FOR EACH ITERATION:

    HEAD CHANGE   HEAD CHANGE   HEAD CHANGE   HEAD CHANGE   HEAD CHANGE
  LAYER,ROW,COL LAYER,ROW,COL LAYER,ROW,COL LAYER,ROW,COL LAYER,ROW,COL
 ----------------------------------------------------------------------
     0.6473E-01    0.5168E-03
  (  3, 11,  8) (  2, 11,  9)


 NO OUTPUT CONTROL FOR STRESS PERIOD    6   TIME STEP   2
 
 SOLVING FOR HEAD 
     2 ITERATIONS FOR TIME STEP   3 IN STRESS PERIOD    6

 MAXIMUM HEAD CHANGE FOR EACH ITERATION:

    HEAD CHANGE   HEAD CHANGE   HEAD CHANGE   HEAD CHANGE   HEAD CHANGE
  LAYER,ROW,COL LAYER,ROW,COL LAYER,ROW,COL LAYER,ROW,COL LAYER,ROW,COL
 ----------------------------------------------------------------------
    -0.1490E-01   -0.6123E-03
  (  1, 11,  8) (  2, 11,  7)


 NO OUTPUT CONTROL FOR STRESS PERIOD    6   TIME STEP   3
 
 SOLVING FOR HEAD 
     2 ITERATIONS FOR TIME STEP   4 IN STRESS PERIOD    6

 MAXIMUM HEAD CHANGE FOR EACH ITERATION:

    HEAD CHANGE   HEAD CHANGE   HEAD CHANGE   HEAD CHANGE   HEAD CHANGE
  LAYER,ROW,COL LAYER,ROW,COL LAYER,ROW,COL LAYER,ROW,COL LAYER,ROW,COL
 ----------------------------------------------------------------------
    -0.1414E-01   -0.7713E-03
  (  1, 11,  8) (  2, 11,  7)


 NO OUTPUT CONTROL FOR STRESS PERIOD    6   TIME STEP   4
 
 SOLVING FOR HEAD 
     2 ITERATIONS FOR TIME STEP   5 IN STRESS PERIOD    6

 MAXIMUM HEAD CHANGE FOR EACH ITERATION:

    HEAD CHANGE   HEAD CHANGE   HEAD CHANGE   HEAD CHANGE   HEAD CHANGE
  LAYER,ROW,COL LAYER,ROW,COL LAYER,ROW,COL LAYER,ROW,COL LAYER,ROW,COL
 ----------------------------------------------------------------------
    -0.1303E-01   -0.9309E-03
  (  1, 11,  8) (  2, 11,  7)


 NO OUTPUT CONTROL FOR STRESS PERIOD    6   TIME STEP   5
 
 SOLVING FOR HEAD 
     3 ITERATIONS FOR TIME STEP   6 IN STRESS PERIOD    6

 MAXIMUM HEAD CHANGE FOR EACH ITERATION:

    HEAD CHANGE   HEAD CHANGE   HEAD CHANGE   HEAD CHANGE   HEAD CHANGE
  LAYER,ROW,COL LAYER,ROW,COL LAYER,ROW,COL LAYER,ROW,COL LAYER,ROW,COL
 ----------------------------------------------------------------------
    -0.1168E-01   -0.1126E-02   -0.1185E-03
  (  1, 11,  8) (  2, 11,  7) (  3, 10,  8)


 NO OUTPUT CONTROL FOR STRESS PERIOD    6   TIME STEP   6
 
 SOLVING FOR HEAD 
     3 ITERATIONS FOR TIME STEP   7 IN STRESS PERIOD    6

 MAXIMUM HEAD CHANGE FOR EACH ITERATION:

    HEAD CHANGE   HEAD CHANGE   HEAD CHANGE   HEAD CHANGE   HEAD CHANGE
  LAYER,ROW,COL LAYER,ROW,COL LAYER,ROW,COL LAYER,ROW,COL LAYER,ROW,COL
 ----------------------------------------------------------------------
    -0.1030E-01   -0.1379E-02   -0.1735E-03
  (  1, 11,  8) (  2, 11,  7) (  3, 10,  8)


 NO OUTPUT CONTROL FOR STRESS PERIOD    6   TIME STEP   7
 
 SOLVING FOR HEAD 
     3 ITERATIONS FOR TIME STEP   8 IN STRESS PERIOD    6

 MAXIMUM HEAD CHANGE FOR EACH ITERATION:

    HEAD CHANGE   HEAD CHANGE   HEAD CHANGE   HEAD CHANGE   HEAD CHANGE
  LAYER,ROW,COL LAYER,ROW,COL LAYER,ROW,COL LAYER,ROW,COL LAYER,ROW,COL
 ----------------------------------------------------------------------
    -0.9066E-02   -0.1724E-02   -0.2552E-03
  (  1, 11,  8) (  2, 11,  7) (  3, 10,  8)


 NO OUTPUT CONTROL FOR STRESS PERIOD    6   TIME STEP   8
 
 SOLVING FOR HEAD 
     3 ITERATIONS FOR TIME STEP   9 IN STRESS PERIOD    6

 MAXIMUM HEAD CHANGE FOR EACH ITERATION:

    HEAD CHANGE   HEAD CHANGE   HEAD CHANGE   HEAD CHANGE   HEAD CHANGE
  LAYER,ROW,COL LAYER,ROW,COL LAYER,ROW,COL LAYER,ROW,COL LAYER,ROW,COL
 ----------------------------------------------------------------------
    -0.8109E-02   -0.2192E-02   -0.3760E-03
  (  1, 11,  8) (  2, 11,  7) (  3, 11,  8)


 NO OUTPUT CONTROL FOR STRESS PERIOD    6   TIME STEP   9
 
 SOLVING FOR HEAD 
     3 ITERATIONS FOR TIME STEP  10 IN STRESS PERIOD    6

 MAXIMUM HEAD CHANGE FOR EACH ITERATION:

    HEAD CHANGE   HEAD CHANGE   HEAD CHANGE   HEAD CHANGE   HEAD CHANGE
  LAYER,ROW,COL LAYER,ROW,COL LAYER,ROW,COL LAYER,ROW,COL LAYER,ROW,COL
 ----------------------------------------------------------------------
    -0.7481E-02   -0.2811E-02   -0.5559E-03
  (  1, 11,  8) (  2, 11,  8) (  3, 11,  8)


 NO OUTPUT CONTROL FOR STRESS PERIOD    6   TIME STEP  10
 
 SOLVING FOR HEAD 
     3 ITERATIONS FOR TIME STEP  11 IN STRESS PERIOD    6

 MAXIMUM HEAD CHANGE FOR EACH ITERATION:

    HEAD CHANGE   HEAD CHANGE   HEAD CHANGE   HEAD CHANGE   HEAD CHANGE
  LAYER,ROW,COL LAYER,ROW,COL LAYER,ROW,COL LAYER,ROW,COL LAYER,ROW,COL
 ----------------------------------------------------------------------
    -0.7156E-02   -0.3636E-02   -0.8160E-03
  (  1, 11,  8) (  2, 11,  8) (  3, 11,  8)


 NO OUTPUT CONTROL FOR STRESS PERIOD    6   TIME STEP  11
 
 SOLVING FOR HEAD 
     4 ITERATIONS FOR TIME STEP  12 IN STRESS PERIOD    6

 MAXIMUM HEAD CHANGE FOR EACH ITERATION:

    HEAD CHANGE   HEAD CHANGE   HEAD CHANGE   HEAD CHANGE   HEAD CHANGE
  LAYER,ROW,COL LAYER,ROW,COL LAYER,ROW,COL LAYER,ROW,COL LAYER,ROW,COL
 ----------------------------------------------------------------------
    -0.7058E-02   -0.4628E-02   -0.1186E-02   -0.9346E-04
  (  1, 11,  8) (  2, 11,  8) (  3, 11,  8) (  3, 13, 10)


 NO OUTPUT CONTROL FOR STRESS PERIOD    6   TIME STEP  12
 
 SOLVING FOR HEAD 
     4 ITERATIONS FOR TIME STEP  13 IN STRESS PERIOD    6

 MAXIMUM HEAD CHANGE FOR EACH ITERATION:

    HEAD CHANGE   HEAD CHANGE   HEAD CHANGE   HEAD CHANGE   HEAD CHANGE
  LAYER,ROW,COL LAYER,ROW,COL LAYER,ROW,COL LAYER,ROW,COL LAYER,ROW,COL
 ----------------------------------------------------------------------
    -0.7525E-02   -0.5791E-02   -0.1703E-02   -0.1647E-03
  (  1,  1, 15) (  2, 11,  8) (  3,  2, 12) (  3, 13, 10)


 NO OUTPUT CONTROL FOR STRESS PERIOD    6   TIME STEP  13
 
 SOLVING FOR HEAD 
     4 ITERATIONS FOR TIME STEP  14 IN STRESS PERIOD    6

 MAXIMUM HEAD CHANGE FOR EACH ITERATION:

    HEAD CHANGE   HEAD CHANGE   HEAD CHANGE   HEAD CHANGE   HEAD CHANGE
  LAYER,ROW,COL LAYER,ROW,COL LAYER,ROW,COL LAYER,ROW,COL LAYER,ROW,COL
 ----------------------------------------------------------------------
    -0.8315E-02   -0.7450E-02   -0.2485E-02   -0.2883E-03
  (  1,  1, 15) (  2,  2, 14) (  3,  2, 12) (  3, 13, 10)


 NO OUTPUT CONTROL FOR STRESS PERIOD    6   TIME STEP  14
 
 SOLVING FOR HEAD 
     4 ITERATIONS FOR TIME STEP  15 IN STRESS PERIOD    6

 MAXIMUM HEAD CHANGE FOR EACH ITERATION:

    HEAD CHANGE   HEAD CHANGE   HEAD CHANGE   HEAD CHANGE   HEAD CHANGE
  LAYER,ROW,COL LAYER,ROW,COL LAYER,ROW,COL LAYER,ROW,COL LAYER,ROW,COL
 ----------------------------------------------------------------------
    -0.9038E-02   -0.9394E-02   -0.3558E-02   -0.5163E-03
  (  1,  1, 15) (  2,  1, 14) (  3,  2, 12) (  3,  6, 12)


 NO OUTPUT CONTROL FOR STRESS PERIOD    6   TIME STEP  15
 
 SOLVING FOR HEAD 
     4 ITERATIONS FOR TIME STEP  16 IN STRESS PERIOD    6

 MAXIMUM HEAD CHANGE FOR EACH ITERATION:

    HEAD CHANGE   HEAD CHANGE   HEAD CHANGE   HEAD CHANGE   HEAD CHANGE
  LAYER,ROW,COL LAYER,ROW,COL LAYER,ROW,COL LAYER,ROW,COL LAYER,ROW,COL
 ----------------------------------------------------------------------
    -0.9668E-02   -0.1164E-01   -0.4986E-02   -0.9266E-03
  (  1,  1, 15) (  2,  1, 14) (  3,  2, 12) (  3,  6, 12)


 NO OUTPUT CONTROL FOR STRESS PERIOD    6   TIME STEP  16
 
 SOLVING FOR HEAD 
     5 ITERATIONS FOR TIME STEP  17 IN STRESS PERIOD    6

 MAXIMUM HEAD CHANGE FOR EACH ITERATION:

    HEAD CHANGE   HEAD CHANGE   HEAD CHANGE   HEAD CHANGE   HEAD CHANGE
  LAYER,ROW,COL LAYER,ROW,COL LAYER,ROW,COL LAYER,ROW,COL LAYER,ROW,COL
 ----------------------------------------------------------------------
    -0.1018E-01   -0.1407E-01   -0.6814E-02   -0.1621E-02   -0.1874E-03
  (  1,  1, 15) (  2,  1, 14) (  3,  2, 12) (  3,  6, 12) (  3,  1,  9)


 NO OUTPUT CONTROL FOR STRESS PERIOD    6   TIME STEP  17
 
 SOLVING FOR HEAD 
     5 ITERATIONS FOR TIME STEP  18 IN STRESS PERIOD    6

 MAXIMUM HEAD CHANGE FOR EACH ITERATION:

    HEAD CHANGE   HEAD CHANGE   HEAD CHANGE   HEAD CHANGE   HEAD CHANGE
  LAYER,ROW,COL LAYER,ROW,COL LAYER,ROW,COL LAYER,ROW,COL LAYER,ROW,COL
 ----------------------------------------------------------------------
    -0.1058E-01   -0.1661E-01   -0.9056E-02   -0.2748E-02   -0.3416E-03
  (  1,  1, 15) (  2,  1, 14) (  3,  2, 13) (  3,  5, 13) (  3,  1,  9)


 NO OUTPUT CONTROL FOR STRESS PERIOD    6   TIME STEP  18
 
 SOLVING FOR HEAD 
     5 ITERATIONS FOR TIME STEP  19 IN STRESS PERIOD    6

 MAXIMUM HEAD CHANGE FOR EACH ITERATION:

    HEAD CHANGE   HEAD CHANGE   HEAD CHANGE   HEAD CHANGE   HEAD CHANGE
  LAYER,ROW,COL LAYER,ROW,COL LAYER,ROW,COL LAYER,ROW,COL LAYER,ROW,COL
 ----------------------------------------------------------------------
    -0.1083E-01   -0.1913E-01   -0.1171E-01   -0.4506E-02   -0.6166E-03
  (  1,  1, 15) (  2,  1, 14) (  3,  2, 13) (  3,  5, 13) (  3,  1, 10)


 NO OUTPUT CONTROL FOR STRESS PERIOD    6   TIME STEP  19
 
 SOLVING FOR HEAD 
     6 ITERATIONS FOR TIME STEP  20 IN STRESS PERIOD    6

 MAXIMUM HEAD CHANGE FOR EACH ITERATION:

    HEAD CHANGE   HEAD CHANGE   HEAD CHANGE   HEAD CHANGE   HEAD CHANGE
  LAYER,ROW,COL LAYER,ROW,COL LAYER,ROW,COL LAYER,ROW,COL LAYER,ROW,COL
 ----------------------------------------------------------------------
    -0.1094E-01   -0.2147E-01   -0.1463E-01   -0.7089E-02   -0.1092E-02
  (  1,  1, 15) (  2,  1, 14) (  3,  2, 13) (  3,  5, 13) (  3,  1, 10)
    -0.1312E-03
  (  1, 15, 15)


 OUTPUT CONTROL FOR STRESS PERIOD    6   TIME STEP  20
    PRINT HEAD FOR ALL LAYERS
1
              HEAD IN LAYER   1 AT END OF TIME STEP  20 IN STRESS PERIOD    6
  ---------------------------------------------------------------------------

            1           2           3           4           5           6
            7           8           9          10          11          12
           13          14          15
 ........................................................................
   1    0.000       2.778       5.127       7.125       8.838       10.34    
        11.69       12.87       13.88       14.72       15.43       16.02    
        16.49       16.82       17.00    
   2    0.000       2.735       5.039       6.986       8.633       10.07    
        11.44       12.64       13.64       14.46       15.14       15.73    
        16.23       16.59       16.77    
   3    0.000       2.650       4.871       6.721       8.222       9.458    
        10.95       12.21       13.19       13.93       14.53       15.16    
        15.72       16.13       16.34    
   4    0.000       2.525       4.639       6.382       7.672       8.261    
        10.30       11.65       12.56       13.14       13.52       14.24    
        14.95       15.46       15.72    
   5    0.000       2.345       4.346       6.082       7.505       8.649    
        10.02       11.12       11.86       12.18       12.01       12.96    
        13.98       14.65       14.97    
   6    0.000       2.048       3.884       5.672       7.214       8.488    
        9.624       10.53       11.19       11.55       11.60       11.53    
        12.99       13.78       14.14    
   7    0.000       1.504       3.030       5.084       6.770       8.056    
        9.038       9.788       10.42       10.87       11.23       11.58    
        12.36       12.93       13.26    
   8    0.000      0.4596       1.139       4.421       6.305       7.512    
        8.272       8.748       9.410       9.881       10.48       10.90    
        11.54       11.92       12.31    
   9    0.000       1.375       2.759       4.641       6.087       7.000    
        7.370       7.078       8.169       8.323       9.487       9.578    
        10.57       10.46       11.34    
  10    0.000       1.803       3.379       4.859       5.984       6.615    
        6.695       6.418       7.401       8.110       9.105       9.698    
        10.22       10.36       10.81    
  11    0.000       2.008       3.661       5.012       5.961       6.370    
        5.997       4.286       6.511       7.149       8.699       9.460    
        9.821       9.487       10.32    
  12    0.000       2.114       3.818       5.146       6.065       6.516    
        6.456       6.076       6.994       7.666       8.637       9.205    
        9.686       9.794       10.23    
  13    0.000       2.177       3.922       5.272       6.225       6.763    
        6.853       6.361       7.332       7.421       8.556       8.599    
        9.504       9.318       10.15    
  14    0.000       2.216       3.993       5.377       6.386       7.043    
        7.400       7.590       8.088       8.501       9.101       9.488    
        9.955       10.17       10.47    
  15    0.000       2.235       4.031       5.437       6.483       7.212    
        7.698       8.070       8.508       8.955       9.442       9.861    
        10.24       10.50       10.69    
1
              HEAD IN LAYER   2 AT END OF TIME STEP  20 IN STRESS PERIOD    6
  ---------------------------------------------------------------------------

            1           2           3           4           5           6
            7           8           9          10          11          12
           13          14          15
 ........................................................................
   1    0.000       2.759       5.101       7.100       8.812       10.31    
        11.66       12.85       13.86       14.70       15.40       15.99    
        16.46       16.80       16.97    
   2    0.000       2.716       5.013       6.960       8.608       10.04    
        11.42       12.62       13.62       14.44       15.11       15.71    
        16.21       16.56       16.75    
   3    0.000       2.631       4.846       6.695       8.194       9.402    
        10.93       12.19       13.16       13.90       14.50       15.13    
        15.69       16.10       16.32    
   4    0.000       2.506       4.614       6.355       7.616       7.139    
        10.25       11.62       12.53       13.11       13.42       14.20    
        14.92       15.44       15.70    
   5    0.000       2.326       4.321       6.056       7.477       8.593    
        9.996       11.09       11.83       12.08       11.13       12.83    
        13.95       14.62       14.95    
   6    0.000       2.029       3.860       5.647       7.188       8.461    
        9.599       10.51       11.17       11.51       11.46       10.39    
        12.93       13.75       14.11    
   7    0.000       1.494       3.024       5.061       6.745       8.031    
        9.014       9.764       10.39       10.85       11.19       11.52    
        12.33       12.91       13.24    
   8    0.000      0.5702       1.402       4.413       6.281       7.487    
        8.248       8.731       9.387       9.864       10.46       10.88    
        11.52       11.91       12.29    
   9    0.000       1.364       2.753       4.618       6.062       6.975    
        7.352       7.167       8.159       8.419       9.478       9.672    
        10.56       10.56       11.33    
  10    0.000       1.784       3.355       4.834       5.959       6.589    
        6.660       6.324       7.368       8.100       9.083       9.682    
        10.19       10.35       10.79    
  11    0.000       1.988       3.636       4.986       5.936       6.340    
        5.896       3.173       6.417       7.239       8.682       9.438    
        9.805       9.582       10.30    
  12    0.000       2.094       3.793       5.121       6.040       6.490    
        6.420       5.983       6.961       7.656       8.616       9.189    
        9.665       9.785       10.21    
  13    0.000       2.157       3.897       5.247       6.200       6.738    
        6.835       6.451       7.321       7.517       8.547       8.694    
        9.496       9.413       10.14    
  14    0.000       2.196       3.968       5.352       6.361       7.019    
        7.376       7.572       8.065       8.485       9.079       9.472    
        9.933       10.16       10.45    
  15    0.000       2.215       4.006       5.412       6.458       7.187    
        7.673       8.046       8.484       8.931       9.418       9.837    
        10.22       10.48       10.67    
1
              HEAD IN LAYER   3 AT END OF TIME STEP  20 IN STRESS PERIOD    6
  ---------------------------------------------------------------------------

            1           2           3           4           5           6
            7           8           9          10          11          12
           13          14          15
 ........................................................................
   1   0.2027       2.739       5.068       7.066       8.779       10.28    
        11.63       12.82       13.82       14.67       15.37       15.96    
        16.43       16.77       16.94    
   2   0.1994       2.695       4.980       6.926       8.573       10.01    
        11.38       12.59       13.59       14.40       15.08       15.68    
        16.18       16.53       16.72    
   3   0.1931       2.610       4.812       6.661       8.155       9.342    
        10.89       12.15       13.13       13.87       14.46       15.09    
        15.66       16.07       16.28    
   4   0.1837       2.485       4.581       6.319       7.556       7.567    
        10.19       11.59       12.50       13.05       13.25       14.14    
        14.89       15.41       15.67    
   5   0.1700       2.304       4.288       6.022       7.438       8.534    
        9.958       11.06       11.79       11.91       9.159       12.63    
        13.90       14.59       14.91    
   6   0.1475       2.008       3.829       5.614       7.154       8.425    
        9.565       10.48       11.13       11.46       11.26       10.79    
        12.87       13.72       14.08    
   7   0.1092       1.486       3.022       5.031       6.712       7.998    
        8.981       9.732       10.36       10.81       11.14       11.46    
        12.29       12.88       13.21    
   8   5.9431E-02  0.7123       1.723       4.409       6.249       7.454    
        8.217       8.710       9.358       9.844       10.43       10.86    
        11.49       11.89       12.26    
   9   9.9671E-02   1.356       2.752       4.589       6.030       6.943    
        7.329       7.270       8.150       8.533       9.471       9.785    
        10.55       10.67       11.31    
  10   0.1295       1.762       3.325       4.801       5.926       6.553    
        6.608       6.174       7.320       8.091       9.056       9.664    
        10.17       10.34       10.76    
  11   0.1450       1.966       3.603       4.953       5.902       6.296    
        5.732       1.614       6.267       7.342       8.662       9.409    
        9.786       9.695       10.29    
  12   0.1533       2.072       3.760       5.088       6.007       6.455    
        6.369       5.832       6.913       7.647       8.589       9.170    
        9.638       9.779       10.18    
  13   0.1580       2.135       3.864       5.214       6.167       6.706    
        6.813       6.554       7.312       7.632       8.540       8.808    
        9.489       9.526       10.12    
  14   0.1609       2.174       3.935       5.318       6.328       6.986    
        7.345       7.552       8.036       8.465       9.051       9.453    
        9.905       10.14       10.42    
  15   0.1624       2.193       3.973       5.378       6.425       7.154    
        7.641       8.014       8.451       8.899       9.386       9.806    
        10.19       10.45       10.64    
1
  VOLUMETRIC BUDGET FOR ENTIRE MODEL AT END OF TIME STEP 20 IN STRESS PERIOD   6
  ------------------------------------------------------------------------------

     CUMULATIVE VOLUMES      L**3       RATES FOR THIS TIME STEP      L**3/T
     ------------------                 ------------------------

           IN:                                      IN:
           ---                                      ---
             STORAGE =  1398884582.9929               STORAGE =       34175.8404
       CONSTANT HEAD =           0.0000         CONSTANT HEAD =           0.0000
               WELLS =           0.0000                 WELLS =           0.0000
              DRAINS =           0.0000                DRAINS =           0.0000
            RECHARGE = 24835960800.0000              RECHARGE =     1360800.0000
        MANAGED FLOW =           0.0000          MANAGED FLOW =           0.0000

            TOTAL IN = 26234845382.9929              TOTAL IN =     1394975.8404

          OUT:                                     OUT:
          ----                                     ----
             STORAGE =    25956713.4119               STORAGE =           0.0000
       CONSTANT HEAD =  9332679563.1043         CONSTANT HEAD =      480131.8435
               WELLS =  7884648000.0000                 WELLS =      432000.0000
              DRAINS =  2700904255.4109                DRAINS =      138142.5099
            RECHARGE =           0.0000              RECHARGE =           0.0000
        MANAGED FLOW =  6291025385.0098          MANAGED FLOW =      344713.7207

           TOTAL OUT = 26235213916.9368             TOTAL OUT =     1394988.0741

            IN - OUT =     -368533.9439              IN - OUT =         -12.2337

 PERCENT DISCREPANCY =           0.00     PERCENT DISCREPANCY =           0.00






          TIME SUMMARY AT END OF TIME STEP  20 IN STRESS PERIOD    6
                    SECONDS     MINUTES      HOURS       DAYS        YEARS
                    -----------------------------------------------------------
   TIME STEP LENGTH 6.38077E+07 1.06346E+06  17724.      738.51      2.0219    
 STRESS PERIOD TIME 3.15360E+08 5.25600E+06  87600.      3650.0      9.9932    
         TOTAL TIME 1.57689E+09 2.62814E+07 4.38024E+05  18251.      49.969    
1

 Run end date and time (yyyy/mm/dd hh:mm:ss): 2011/03/09  8:09:47
 Elapsed run time: 29.361 Seconds

