                                  MODFLOW-LGR2     
      U.S. GEOLOGICAL SURVEY MODULAR FINITE-DIFFERENCE GROUNDWATER FLOW MODEL
                 VERSION GWM-2005 1.5.0 081513,FROM MF-LGR V2.0


     FINAL FLOW PROCESS SIMULATION FOR GWM                                                                                                                                                                   


 REWOUND ..\data\DRAIN\drain.dis
 FILE TYPE:DIS   UNIT   11

 REWOUND ..\data\DRAIN\drain.ba6
 FILE TYPE:BAS6   UNIT   12

 REWOUND ..\data\DRAIN\drain.bc6
 FILE TYPE:BCF6   UNIT   13

 REWOUND ..\data\DRAIN\drain.rch
 FILE TYPE:RCH   UNIT   15

 REWOUND ..\data\DRAIN\drain.drn
 FILE TYPE:DRN   UNIT   16

 REWOUND ..\data\DRAIN\drain.oc
 FILE TYPE:OC   UNIT   17

 REWOUND ..\data\DRAIN\drain.pcg
 FILE TYPE:PCG   UNIT   18

 REWOUND ..\data\DRAIN\drain.volume.gwm
 FILE TYPE:GWM   UNIT   19

 REWOUND drain.volume.gwmwell
 FILE TYPE:DATA   UNIT   20

 BAS -- BASIC PACKAGE, VERSION 7, 5/2/2005 INPUT READ FROM UNIT   12

 DISCRETIZATION INPUT DATA READ FROM UNIT   11
 #DRAIN Sample Problem--DIS File
 #March 2012
    1 LAYERS        25 ROWS        30 COLUMNS
   12 STRESS PERIOD(S) IN SIMULATION
 MODEL TIME UNIT IS DAYS
 MODEL LENGTH UNIT IS UNDEFINED
  Confining bed flag for each layer:
   0

                     DELR =   200.000    

                     DELC =   200.000    

 TOP ELEVATION OF LAYER 1 =   100.000    

   MODEL LAYER BOTTOM EL. =   0.00000     FOR LAYER   1


 STRESS PERIOD     LENGTH       TIME STEPS     MULTIPLIER FOR DELT    SS FLAG
 ----------------------------------------------------------------------------
        1         92.00000          1                    1.500         TR
        2         91.00000          1                    1.500         TR
        3         91.00000          1                    1.500         TR
        4         91.00000          1                    1.500         TR
        5         92.00000          1                    1.500         TR
        6         91.00000          1                    1.500         TR
        7         91.00000          1                    1.500         TR
        8         91.00000          1                    1.500         TR
        9         92.00000          1                    1.500         TR
       10         91.00000          1                    1.500         TR
       11         91.00000          1                    1.500         TR
       12         91.00000          1                    1.500         TR

 TRANSIENT SIMULATION



 
 #DRAIN Sample Problem--BAS File                                                 
 #March 2012                                                                     
 THE FREE FORMAT OPTION HAS BEEN SELECTED



                     BOUNDARY ARRAY FOR LAYER   1
 READING ON UNIT   12 WITH FORMAT: (20I4)              

 AQUIFER HEAD WILL BE SET TO  0.0000     AT ALL NO-FLOW NODES (IBOUND=0).



                       INITIAL HEAD FOR LAYER   1
 READING ON UNIT   12 WITH FORMAT: (10F13.0)           

 OUTPUT CONTROL IS SPECIFIED ONLY AT TIME STEPS FOR WHICH OUTPUT IS DESIRED
 HEAD PRINT FORMAT CODE IS   4    DRAWDOWN PRINT FORMAT CODE IS   0
 HEADS WILL BE SAVED ON UNIT    0    DRAWDOWNS WILL BE SAVED ON UNIT    0

 BCF -- BLOCK-CENTERED FLOW PACKAGE, VERSION 7, 5/2/2005
         INPUT READ FROM UNIT 13
 TRANSIENT SIMULATION
 HEAD AT CELLS THAT CONVERT TO DRY=   0.0000    
 WETTING CAPABILITY IS NOT ACTIVE
      LAYER  LAYER-TYPE CODE     INTERBLOCK T
      --------------------------------------------
         1            0          0 -- HARMONIC    

 COLUMN TO ROW ANISOTROPY =   1.00000    

     PRIMARY STORAGE COEF =  5.000000E-02 FOR LAYER   1

     TRANSMIS. ALONG ROWS =   5000.00     FOR LAYER   1

 DRN -- DRAIN PACKAGE, VERSION 7, 5/2/2005 INPUT READ FROM UNIT   16
 #DRAIN Sample Problem--DRN File
 #March 2012
 No named parameters
 MAXIMUM OF     40 ACTIVE DRAINS AT ONE TIME
 CELL-BY-CELL FLOWS WILL BE PRINTED WHEN ICBCFL NOT 0
 AUXILIARY DRAIN VARIABLE: GWM-DR          


     0 Drain parameters

 RCH -- RECHARGE PACKAGE, VERSION 7, 5/2/2005 INPUT READ FROM UNIT   15
 #DRAIN Sample Problem--RCH File
 #March 2012
 No named parameters
 OPTION 1 -- RECHARGE TO TOP LAYER


     0 Recharge parameters
1
                            STRESS PERIOD NO.    1, LENGTH =   92.00000    
                            -----------------------------------------------

                              NUMBER OF TIME STEPS =     1

                               MULTIPLIER FOR DELT =     1.500

                            INITIAL TIME STEP SIZE =   92.00000    

 DRAIN NO.  LAYER   ROW   COL     DRAIN EL.  CONDUCTANCE         GWM-DR          
 --------------------------------------------------------------------------------
      1      1     13      1       47.50          0.2000E+05       1.000    
      2      1     13      2       47.00          0.2000E+05       1.000    
      3      1     14      3       46.50          0.2000E+05       1.000    
      4      1     15      4       46.00          0.2000E+05       1.000    
      5      1     16      5       45.50          0.2000E+05       1.000    
      6      1     16      6       45.00          0.2000E+05       1.000    
      7      1     16      7       44.50          0.2000E+05       1.000    
      8      1     16      8       44.00          0.2000E+05       1.000    
      9      1     16      9       43.50          0.2000E+05       1.000    
     10      1     16     10       43.00          0.2000E+05       1.000    
     11      1     16     11       42.50          0.2000E+05       1.000    
     12      1     16     12       42.00          0.2000E+05       1.000    
     13      1     15     13       41.50          0.2000E+05       1.000    
     14      1     14     14       41.00          0.2000E+05       1.000    
     15      1     13     15       40.50          0.2000E+05       1.000    
     16      1     12     16       40.00          0.2000E+05       1.000    
     17      1     12     17       39.50          0.2000E+05       1.000    
     18      1     12     18       39.00          0.2000E+05       1.000    
     19      1     12     19       38.50          0.2000E+05       1.000    
     20      1     13     20       38.00          0.2000E+05       1.000    
     21      1     14     21       37.50          0.2000E+05       1.000    
     22      1     14     22       37.00          0.1000E+05       11.00    
     23      1      9     30       39.25          0.2000E+05       2.000    
     24      1      9     29       39.00          0.2000E+05       2.000    
     25      1      9     28       38.75          0.2000E+05       2.000    
     26      1      9     27       38.50          0.2000E+05       2.000    
     27      1     10     26       38.25          0.2000E+05       2.000    
     28      1     11     25       38.00          0.2000E+05       2.000    
     29      1     12     24       37.75          0.2000E+05       2.000    
     30      1     13     23       37.50          0.2000E+05       2.000    
     31      1     14     22       37.00           5000.           22.00    
     32      1     14     22       37.00           5000.           33.00    
     33      1     15     23       37.00          0.2000E+05       3.000    
     34      1     15     24       36.00          0.2000E+05       3.000    
     35      1     15     25       35.00          0.2000E+05       3.000    
     36      1     15     26       34.00          0.2000E+05       3.000    
     37      1     16     27       33.00          0.2000E+05       3.000    
     38      1     17     28       32.00          0.2000E+05       3.000    
     39      1     18     29       31.00          0.2000E+05       3.000    
     40      1     18     30       30.00          0.2000E+05       3.000    

     40 DRAINS

                 RECHARGE =  5.000000E-04

Flows at Managed Wells for Stress Period    1

 Well no.  Layer   Row   Col   Stress Rate
 ----------------------------------------------------
        1      1    12    11   -15485.97923628778    
        2      1    16    17   -14514.02076371222    
 ----------------------------------------------------
                      Total:   -30000.00000000000    
 
 SOLVING FOR HEAD 


     4 CALLS TO PCG ROUTINE FOR TIME STEP   1 IN STRESS PERIOD    1
    16 TOTAL ITERATIONS

 OUTPUT CONTROL FOR STRESS PERIOD    1   TIME STEP    1
    PRINT BUDGET
    PRINT HEAD FOR ALL LAYERS
    SAVE BUDGET

           DRAINS   PERIOD    1   STEP   1
 DRAIN      1   LAYER   1   ROW    13   COL     1   RATE    -31762.4    
 DRAIN      2   LAYER   1   ROW    13   COL     2   RATE    -42602.2    
 DRAIN      3   LAYER   1   ROW    14   COL     3   RATE    -38223.8    
 DRAIN      4   LAYER   1   ROW    15   COL     4   RATE    -37407.2    
 DRAIN      5   LAYER   1   ROW    16   COL     5   RATE    -38625.2    
 DRAIN      6   LAYER   1   ROW    16   COL     6   RATE    -33720.2    
 DRAIN      7   LAYER   1   ROW    16   COL     7   RATE    -33445.6    
 DRAIN      8   LAYER   1   ROW    16   COL     8   RATE    -33560.6    
 DRAIN      9   LAYER   1   ROW    16   COL     9   RATE    -33543.1    
 DRAIN     10   LAYER   1   ROW    16   COL    10   RATE    -33474.4    
 DRAIN     11   LAYER   1   ROW    16   COL    11   RATE    -34115.0    
 DRAIN     12   LAYER   1   ROW    16   COL    12   RATE    -40395.2    
 DRAIN     13   LAYER   1   ROW    15   COL    13   RATE    -38934.5    
 DRAIN     14   LAYER   1   ROW    14   COL    14   RATE    -39473.6    
 DRAIN     15   LAYER   1   ROW    13   COL    15   RATE    -41997.7    
 DRAIN     16   LAYER   1   ROW    12   COL    16   RATE    -48593.4    
 DRAIN     17   LAYER   1   ROW    12   COL    17   RATE    -38518.2    
 DRAIN     18   LAYER   1   ROW    12   COL    18   RATE    -37126.1    
 DRAIN     19   LAYER   1   ROW    12   COL    19   RATE    -42422.1    
 DRAIN     20   LAYER   1   ROW    13   COL    20   RATE    -33222.4    
 DRAIN     21   LAYER   1   ROW    14   COL    21   RATE    -28612.1    
 DRAIN     22   LAYER   1   ROW    14   COL    22   RATE    -11630.0    
 DRAIN     23   LAYER   1   ROW     9   COL    30   RATE    -30296.6    
 DRAIN     24   LAYER   1   ROW     9   COL    29   RATE    -32971.6    
 DRAIN     25   LAYER   1   ROW     9   COL    28   RATE    -37458.5    
 DRAIN     26   LAYER   1   ROW     9   COL    27   RATE    -52521.0    
 DRAIN     27   LAYER   1   ROW    10   COL    26   RATE    -38906.1    
 DRAIN     28   LAYER   1   ROW    11   COL    25   RATE    -30580.3    
 DRAIN     29   LAYER   1   ROW    12   COL    24   RATE    -23863.0    
 DRAIN     30   LAYER   1   ROW    13   COL    23   RATE    -18627.5    
 DRAIN     31   LAYER   1   ROW    14   COL    22   RATE    -5814.98    
 DRAIN     32   LAYER   1   ROW    14   COL    22   RATE    -5814.98    
 DRAIN     33   LAYER   1   ROW    15   COL    23   RATE    -22402.8    
 DRAIN     34   LAYER   1   ROW    15   COL    24   RATE    -20164.5    
 DRAIN     35   LAYER   1   ROW    15   COL    25   RATE    -20770.7    
 DRAIN     36   LAYER   1   ROW    15   COL    26   RATE    -24739.2    
 DRAIN     37   LAYER   1   ROW    16   COL    27   RATE    -33174.0    
 DRAIN     38   LAYER   1   ROW    17   COL    28   RATE    -40813.3    
 DRAIN     39   LAYER   1   ROW    18   COL    29   RATE    -51952.9    
 DRAIN     40   LAYER   1   ROW    18   COL    30   RATE    -48632.1    
1
              HEAD IN LAYER   1 AT END OF TIME STEP   1 IN STRESS PERIOD    1
  ---------------------------------------------------------------------------

           1       2       3       4       5       6       7       8       9      10      11      12      13      14      15
          16      17      18      19      20      21      22      23      24      25      26      27      28      29      30
 ...........................................................................................................................
   1   100.50  100.00   99.50   99.00   98.50   98.00   97.50   97.00   96.50   96.00   95.50   95.00   94.50   94.00   93.50
        93.00   92.50   92.00   91.50   91.00   90.50   90.00   89.50   89.00   88.50   88.00   87.50   87.00   86.50   86.00
   2    96.02   95.76   95.41   95.01   94.58   94.13   93.65   93.17   92.66   92.15   91.62   91.08   90.53   89.97   89.41
        88.85   88.28   87.71   87.14   86.56   85.98   85.39   84.80   84.20   83.61   83.04   82.50   82.00   81.59   81.30
   3    91.77   91.62   91.36   91.04   90.67   90.26   89.81   89.34   88.83   88.29   87.73   87.15   86.55   85.93   85.31
        84.68   84.05   83.41   82.77   82.12   81.46   80.78   80.08   79.38   78.69   78.03   77.43   76.92   76.53   76.31
   4    87.66   87.55   87.36   87.10   86.78   86.41   85.98   85.52   85.00   84.44   83.85   83.22   82.56   81.89   81.20
        80.50   79.80   79.10   78.39   77.67   76.92   76.15   75.35   74.53   73.71   72.93   72.24   71.67   71.27   71.06
   5    83.63   83.55   83.40   83.19   82.92   82.58   82.18   81.71   81.19   80.61   79.97   79.29   78.57   77.82   77.06
        76.29   75.52   74.76   73.99   73.20   72.38   71.52   70.60   69.63   68.66   67.71   66.88   66.23   65.79   65.57
   6    79.63   79.58   79.48   79.31   79.08   78.78   78.40   77.94   77.40   76.79   76.10   75.36   74.56   73.73   72.88
        72.04   71.20   70.38   69.56   68.73   67.85   66.89   65.84   64.71   63.51   62.33   61.29   60.51   60.02   59.79
   7    75.65   75.63   75.56   75.45   75.27   75.01   74.65   74.20   73.64   72.99   72.25   71.43   70.55   69.62   68.66
        67.72   66.81   65.95   65.10   64.25   63.33   62.30   61.12   59.78   58.30   56.76   55.35   54.44   53.94   53.72
   8    71.65   71.65   71.65   71.61   71.50   71.29   70.96   70.51   69.93   69.23   68.42   67.52   66.53   65.46   64.37
        63.31   62.32   61.42   60.60   59.77   58.87   57.79   56.49   54.92   53.06   50.96   48.85   47.87   47.48   47.35
   9    67.58   67.63   67.72   67.78   67.76   67.62   67.33   66.89   66.28   65.52   64.63   63.63   62.51   61.28   59.99
        58.74   57.66   56.77   56.01   55.31   54.50   53.44   52.04   50.25   47.99   45.10   41.13   40.62   40.65   40.76
  10    63.38   63.52   63.75   63.97   64.09   64.04   63.80   63.36   62.72   61.87   60.87   59.78   58.53   57.08   55.49
        53.94   52.74   51.88   51.29   50.87   50.29   49.33   47.91   45.98   43.45   40.20   40.32   40.22   40.21   40.24
  11    58.98   59.22   59.71   60.19   60.50   60.57   60.40   59.97   59.28   58.32   57.10   56.03   54.66   52.92   50.86
        48.68   47.40   46.63   46.29   46.52   46.35   45.59   44.20   42.19   39.53   39.58   39.62   39.61   39.61   39.63
  12    54.25   54.58   55.62   56.50   57.06   57.27   57.16   56.76   56.04   54.93   53.10   52.50   51.06   49.00   46.25
        42.43   41.43   40.86   40.62   42.46   42.91   42.37   41.01   38.94   38.90   38.86   38.87   38.88   38.90   38.91
  13    49.09   49.13   51.58   53.05   53.87   54.20   54.14   53.77   53.11   52.15   50.90   49.69   47.99   45.67   42.60
        42.96   42.60   42.05   41.24   39.66   40.37   39.86   38.43   38.33   38.14   38.00   37.99   38.03   38.07   38.10
  14    50.13   49.69   48.41   50.13   51.10   51.42   51.34   50.98   50.38   49.57   48.54   47.27   45.45   42.97   43.80
        44.08   43.86   43.38   42.53   41.10   38.93   38.16   38.13   37.70   37.22   36.88   36.95   37.07   37.15   37.19
  15    51.50   50.97   49.78   47.87   48.86   48.95   48.72   48.31   47.77   47.11   46.31   45.29   43.45   44.75   45.44
        45.58   45.28   44.97   44.29   43.17   41.70   40.27   38.12   37.01   36.04   35.24   35.75   36.02   36.17   36.21
  16    53.31   52.82   51.77   50.07   47.43   46.69   46.17   45.68   45.18   44.67   44.21   44.02   45.97   47.04   47.52
        47.44   46.58   46.84   46.38   45.50   44.32   42.98   41.45   40.10   38.73   37.12   34.66   35.00   35.17   35.16
  17    55.52   55.12   54.31   53.13   51.72   50.83   50.18   49.65   49.18   48.79   48.53   48.58   49.27   49.81   50.06
        49.97   49.59   49.33   48.81   48.02   47.00   45.81   44.48   43.10   41.58   39.73   37.29   34.04   34.23   33.98
  18    58.05   57.74   57.14   56.31   55.39   54.62   53.99   53.47   53.02   52.67   52.44   52.41   52.62   52.80   52.85
        52.70   52.38   51.99   51.43   50.68   49.76   48.69   47.48   46.15   44.65   42.85   40.61   37.69   33.60   32.43
  19    60.81   60.57   60.12   59.52   58.84   58.19   57.62   57.11   56.68   56.33   56.07   55.94   55.90   55.86   55.75
        55.52   55.18   54.73   54.16   53.45   52.60   51.62   50.52   49.30   47.92   46.33   44.50   42.42   40.31   39.32
  20    63.74   63.56   63.20   62.72   62.18   61.62   61.10   60.62   60.19   59.82   59.52   59.29   59.10   58.92   58.69
        58.39   58.01   57.54   56.97   56.29   55.50   54.61   53.62   52.52   51.31   49.98   48.55   47.09   45.81   45.13
  21    66.81   66.65   66.35   65.94   65.46   64.97   64.48   64.01   63.58   63.19   62.84   62.53   62.25   61.97   61.66
        61.30   60.88   60.39   59.83   59.18   58.46   57.65   56.76   55.80   54.77   53.67   52.56   51.50   50.64   50.16
  22    70.00   69.84   69.55   69.17   68.73   68.26   67.79   67.32   66.88   66.47   66.08   65.71   65.35   65.00   64.62
        64.22   63.77   63.27   62.72   62.11   61.44   60.72   59.94   59.10   58.23   57.33   56.45   55.65   55.02   54.67
  23    73.31   73.13   72.82   72.43   71.99   71.52   71.05   70.58   70.12   69.68   69.25   68.83   68.42   68.01   67.59
        67.14   66.67   66.17   65.64   65.06   64.45   63.81   63.12   62.41   61.67   60.93   60.22   59.57   59.07   58.77
  24    76.78   76.51   76.14   75.71   75.24   74.77   74.28   73.80   73.32   72.85   72.38   71.92   71.47   71.01   70.55
        70.07   69.59   69.09   68.57   68.03   67.47   66.90   66.31   65.71   65.10   64.48   63.89   63.34   62.87   62.55
  25    80.50   80.00   79.50   79.00   78.50   78.00   77.50   77.00   76.50   76.00   75.50   75.00   74.50   74.00   73.50
        73.00   72.50   72.00   71.50   71.00   70.50   70.00   69.50   69.00   68.50   68.00   67.50   67.00   66.50   66.00
1
  VOLUMETRIC BUDGET FOR ENTIRE MODEL AT END OF TIME STEP    1, STRESS PERIOD   1
  ------------------------------------------------------------------------------

     CUMULATIVE VOLUMES      L**3       RATES FOR THIS TIME STEP      L**3/T
     ------------------                 ------------------------

           IN:                                      IN:
           ---                                      ---
             STORAGE =    19881512.6570               STORAGE =      216103.3984
       CONSTANT HEAD =   104052454.8219         CONSTANT HEAD =     1131004.9437
              DRAINS =           0.0000                DRAINS =           0.0000
            RECHARGE =     1269600.0000              RECHARGE =       13800.0000
       MANAGED WELLS =           0.0000         MANAGED WELLS =           0.0000

            TOTAL IN =   125203567.4789              TOTAL IN =     1360908.3422

          OUT:                                     OUT:
          ----                                     ----
             STORAGE =           0.0000               STORAGE =           0.0000
       CONSTANT HEAD =           0.0000         CONSTANT HEAD =           0.0000
              DRAINS =   122443620.4469                DRAINS =     1330908.9179
            RECHARGE =           0.0000              RECHARGE =           0.0000
       MANAGED WELLS =     2760000.0000         MANAGED WELLS =       30000.0000

           TOTAL OUT =   125203620.4469             TOTAL OUT =     1360908.9179

            IN - OUT =         -52.9680              IN - OUT =          -0.5757

 PERCENT DISCREPANCY =           0.00     PERCENT DISCREPANCY =           0.00






         TIME SUMMARY AT END OF TIME STEP    1 IN STRESS PERIOD    1
                    SECONDS     MINUTES      HOURS       DAYS        YEARS
                    -----------------------------------------------------------
   TIME STEP LENGTH 7.94880E+06 1.32480E+05  2208.0      92.000     0.25188    
 STRESS PERIOD TIME 7.94880E+06 1.32480E+05  2208.0      92.000     0.25188    
         TOTAL TIME 7.94880E+06 1.32480E+05  2208.0      92.000     0.25188    
1
1
                            STRESS PERIOD NO.    2, LENGTH =   91.00000    
                            -----------------------------------------------

                              NUMBER OF TIME STEPS =     1

                               MULTIPLIER FOR DELT =     1.500

                            INITIAL TIME STEP SIZE =   91.00000    

 REUSING NON-PARAMETER DRAINS FROM LAST STRESS PERIOD

     40 DRAINS

                 RECHARGE =  2.000000E-03

Flows at Managed Wells for Stress Period    2

 Well no.  Layer   Row   Col   Stress Rate
 ----------------------------------------------------
        1      1    12    11   -15485.97923628778    
        2      1    16    17    0.000000000000000    
        3      1    14    25   -29514.02076371221    
 ----------------------------------------------------
                      Total:   -45000.00000000000    
 
 SOLVING FOR HEAD 


     4 CALLS TO PCG ROUTINE FOR TIME STEP   1 IN STRESS PERIOD    2
    15 TOTAL ITERATIONS

 OUTPUT CONTROL FOR STRESS PERIOD    2   TIME STEP    1
    PRINT BUDGET
    PRINT HEAD FOR ALL LAYERS
    SAVE BUDGET

           DRAINS   PERIOD    2   STEP   1
 DRAIN      1   LAYER   1   ROW    13   COL     1   RATE    -28463.9    
 DRAIN      2   LAYER   1   ROW    13   COL     2   RATE    -38671.9    
 DRAIN      3   LAYER   1   ROW    14   COL     3   RATE    -34190.6    
 DRAIN      4   LAYER   1   ROW    15   COL     4   RATE    -33519.9    
 DRAIN      5   LAYER   1   ROW    16   COL     5   RATE    -35266.1    
 DRAIN      6   LAYER   1   ROW    16   COL     6   RATE    -30755.4    
 DRAIN      7   LAYER   1   ROW    16   COL     7   RATE    -30494.9    
 DRAIN      8   LAYER   1   ROW    16   COL     8   RATE    -30601.0    
 DRAIN      9   LAYER   1   ROW    16   COL     9   RATE    -30599.8    
 DRAIN     10   LAYER   1   ROW    16   COL    10   RATE    -30583.7    
 DRAIN     11   LAYER   1   ROW    16   COL    11   RATE    -31301.7    
 DRAIN     12   LAYER   1   ROW    16   COL    12   RATE    -37472.6    
 DRAIN     13   LAYER   1   ROW    15   COL    13   RATE    -35695.6    
 DRAIN     14   LAYER   1   ROW    14   COL    14   RATE    -36216.5    
 DRAIN     15   LAYER   1   ROW    13   COL    15   RATE    -38694.6    
 DRAIN     16   LAYER   1   ROW    12   COL    16   RATE    -45151.1    
 DRAIN     17   LAYER   1   ROW    12   COL    17   RATE    -35834.7    
 DRAIN     18   LAYER   1   ROW    12   COL    18   RATE    -34470.6    
 DRAIN     19   LAYER   1   ROW    12   COL    19   RATE    -39239.4    
 DRAIN     20   LAYER   1   ROW    13   COL    20   RATE    -30282.1    
 DRAIN     21   LAYER   1   ROW    14   COL    21   RATE    -25902.1    
 DRAIN     22   LAYER   1   ROW    14   COL    22   RATE    -10056.2    
 DRAIN     23   LAYER   1   ROW     9   COL    30   RATE    -27258.9    
 DRAIN     24   LAYER   1   ROW     9   COL    29   RATE    -29926.4    
 DRAIN     25   LAYER   1   ROW     9   COL    28   RATE    -34360.3    
 DRAIN     26   LAYER   1   ROW     9   COL    27   RATE    -48960.4    
 DRAIN     27   LAYER   1   ROW    10   COL    26   RATE    -34446.3    
 DRAIN     28   LAYER   1   ROW    11   COL    25   RATE    -25261.5    
 DRAIN     29   LAYER   1   ROW    12   COL    24   RATE    -18006.9    
 DRAIN     30   LAYER   1   ROW    13   COL    23   RATE    -13734.9    
 DRAIN     31   LAYER   1   ROW    14   COL    22   RATE    -5028.09    
 DRAIN     32   LAYER   1   ROW    14   COL    22   RATE    -5028.09    
 DRAIN     33   LAYER   1   ROW    15   COL    23   RATE    -18616.8    
 DRAIN     34   LAYER   1   ROW    15   COL    24   RATE    -14648.2    
 DRAIN     35   LAYER   1   ROW    15   COL    25   RATE    -11499.8    
 DRAIN     36   LAYER   1   ROW    15   COL    26   RATE    -17714.3    
 DRAIN     37   LAYER   1   ROW    16   COL    27   RATE    -28360.3    
 DRAIN     38   LAYER   1   ROW    17   COL    28   RATE    -36752.5    
 DRAIN     39   LAYER   1   ROW    18   COL    29   RATE    -48708.9    
 DRAIN     40   LAYER   1   ROW    18   COL    30   RATE    -45750.8    
1
              HEAD IN LAYER   1 AT END OF TIME STEP   1 IN STRESS PERIOD    2
  ---------------------------------------------------------------------------

           1       2       3       4       5       6       7       8       9      10      11      12      13      14      15
          16      17      18      19      20      21      22      23      24      25      26      27      28      29      30
 ...........................................................................................................................
   1   100.50  100.00   99.50   99.00   98.50   98.00   97.50   97.00   96.50   96.00   95.50   95.00   94.50   94.00   93.50
        93.00   92.50   92.00   91.50   91.00   90.50   90.00   89.50   89.00   88.50   88.00   87.50   87.00   86.50   86.00
   2    95.87   95.61   95.26   94.86   94.43   93.97   93.50   93.01   92.51   91.99   91.46   90.92   90.37   89.82   89.26
        88.70   88.13   87.56   86.99   86.42   85.84   85.25   84.66   84.07   83.48   82.91   82.37   81.88   81.47   81.18
   3    91.47   91.31   91.06   90.73   90.36   89.94   89.50   89.02   88.51   87.97   87.41   86.83   86.24   85.62   85.00
        84.38   83.75   83.11   82.48   81.83   81.17   80.49   79.80   79.11   78.42   77.77   77.18   76.67   76.29   76.07
   4    87.20   87.09   86.90   86.63   86.31   85.93   85.51   85.04   84.52   83.97   83.37   82.75   82.09   81.42   80.74
        80.05   79.35   78.65   77.95   77.23   76.49   75.73   74.93   74.13   73.32   72.56   71.87   71.32   70.93   70.72
   5    83.03   82.95   82.80   82.58   82.30   81.96   81.55   81.08   80.56   79.98   79.34   78.67   77.95   77.21   76.46
        75.70   74.94   74.18   73.42   72.64   71.83   70.97   70.07   69.12   68.16   67.24   66.43   65.79   65.36   65.15
   6    78.91   78.86   78.74   78.57   78.33   78.02   77.63   77.17   76.63   76.02   75.34   74.60   73.82   73.00   72.17
        71.33   70.51   69.69   68.89   68.06   67.19   66.25   65.22   64.11   62.95   61.80   60.79   60.03   59.56   59.34
   7    74.83   74.80   74.73   74.61   74.41   74.14   73.77   73.31   72.76   72.11   71.37   70.57   69.70   68.79   67.86
        66.93   66.04   65.19   64.35   63.51   62.60   61.59   60.43   59.13   57.70   56.21   54.86   53.98   53.50   53.29
   8    70.77   70.77   70.75   70.69   70.56   70.33   69.99   69.53   68.95   68.26   67.46   66.58   65.61   64.58   63.52
        62.48   61.52   60.64   59.82   59.00   58.10   57.05   55.78   54.26   52.48   50.47   48.45   47.51   47.14   47.02
   9    66.68   66.73   66.79   66.83   66.78   66.62   66.31   65.85   65.25   64.49   63.62   62.65   61.57   60.38   59.14
        57.94   56.89   56.01   55.26   54.55   53.74   52.70   51.35   49.64   47.47   44.72   40.95   40.47   40.50   40.61
  10    62.53   62.64   62.84   63.02   63.10   63.02   62.76   62.31   61.66   60.83   59.85   58.80   57.60   56.22   54.71
        53.23   52.07   51.23   50.63   50.19   49.59   48.65   47.28   45.43   43.04   39.97   39.92   39.77   39.74   39.76
  11    58.25   58.46   58.89   59.31   59.55   59.58   59.38   58.93   58.25   57.30   56.11   55.10   53.80   52.17   50.22
        48.16   46.93   46.18   45.82   45.98   45.77   45.00   43.67   41.76   39.26   39.08   38.99   38.93   38.91   38.91
  12    53.74   54.03   54.95   55.73   56.20   56.36   56.21   55.79   55.07   53.97   52.19   51.65   50.32   48.40   45.83
        42.26   41.29   40.72   40.46   42.11   42.47   41.92   40.61   38.65   38.21   38.06   38.02   38.02   38.03   38.04
  13    48.92   48.93   51.14   52.44   53.16   53.41   53.31   52.91   52.25   51.31   50.11   48.98   47.42   45.27   42.43
        42.75   42.40   41.84   41.03   39.51   40.09   39.55   38.19   37.60   36.86   36.89   37.01   37.09   37.14   37.16
  14    49.77   49.36   48.21   49.72   50.55   50.80   50.67   50.29   49.70   48.90   47.92   46.73   45.07   42.81   43.60
        43.90   43.72   43.18   42.28   40.87   38.80   38.01   37.71   36.70   34.72   35.63   36.00   36.17   36.25   36.28
  15    51.01   50.52   49.43   47.68   48.51   48.54   48.28   47.86   47.32   46.67   45.91   44.95   43.28   44.53   45.25
        45.51   45.37   44.87   44.04   42.86   41.38   39.97   37.93   36.73   35.57   34.89   35.16   35.32   35.40   35.41
  16    52.73   52.27   51.30   49.72   47.26   46.54   46.02   45.53   45.03   44.53   44.07   43.87   45.71   46.76   47.33
        47.51   47.35   46.89   46.14   45.12   43.89   42.54   41.02   39.64   38.24   36.70   34.42   34.55   34.59   34.53
  17    54.88   54.51   53.75   52.64   51.32   50.46   49.84   49.31   48.85   48.45   48.20   48.24   48.90   49.46   49.78
        49.83   49.62   49.17   48.48   47.58   46.50   45.28   43.94   42.55   41.03   39.25   36.92   33.84   33.86   33.56
  18    57.40   57.10   56.54   55.76   54.88   54.14   53.53   53.01   52.57   52.22   52.00   51.98   52.18   52.39   52.48
        52.40   52.13   51.67   51.02   50.20   49.23   48.12   46.89   45.56   44.07   42.32   40.15   37.36   33.44   32.29
  19    60.18   59.96   59.53   58.95   58.29   57.67   57.11   56.62   56.19   55.85   55.60   55.47   55.44   55.42   55.34
        55.14   54.81   54.34   53.71   52.95   52.07   51.06   49.94   48.71   47.34   45.79   44.00   41.99   39.96   39.00
  20    63.17   62.99   62.65   62.19   61.66   61.12   60.61   60.14   59.72   59.36   59.06   58.84   58.66   58.49   58.28
        58.00   57.62   57.13   56.53   55.82   55.01   54.09   53.08   51.98   50.78   49.46   48.06   46.64   45.39   44.73
  21    66.33   66.17   65.87   65.47   65.01   64.53   64.05   63.59   63.16   62.78   62.44   62.14   61.86   61.59   61.29
        60.94   60.52   60.02   59.44   58.77   58.03   57.20   56.30   55.34   54.30   53.22   52.12   51.08   50.24   49.77
  22    69.62   69.47   69.18   68.81   68.37   67.91   67.45   66.99   66.55   66.14   65.75   65.39   65.05   64.70   64.33
        63.93   63.48   62.97   62.41   61.79   61.10   60.37   59.58   58.74   57.86   56.97   56.10   55.30   54.68   54.34
  23    73.06   72.87   72.57   72.18   71.74   71.28   70.82   70.35   69.90   69.46   69.03   68.62   68.21   67.80   67.38
        66.94   66.47   65.97   65.42   64.84   64.22   63.57   62.88   62.16   61.43   60.69   59.98   59.34   58.83   58.54
  24    76.65   76.39   76.01   75.58   75.12   74.65   74.17   73.69   73.21   72.74   72.28   71.82   71.36   70.91   70.45
        69.97   69.49   68.98   68.46   67.92   67.36   66.78   66.19   65.59   64.97   64.36   63.77   63.22   62.75   62.44
  25    80.50   80.00   79.50   79.00   78.50   78.00   77.50   77.00   76.50   76.00   75.50   75.00   74.50   74.00   73.50
        73.00   72.50   72.00   71.50   71.00   70.50   70.00   69.50   69.00   68.50   68.00   67.50   67.00   66.50   66.00
1
  VOLUMETRIC BUDGET FOR ENTIRE MODEL AT END OF TIME STEP    1, STRESS PERIOD   2
  ------------------------------------------------------------------------------

     CUMULATIVE VOLUMES      L**3       RATES FOR THIS TIME STEP      L**3/T
     ------------------                 ------------------------

           IN:                                      IN:
           ---                                      ---
             STORAGE =    20555821.9590               STORAGE =        7409.9923
       CONSTANT HEAD =   210517007.1381         CONSTANT HEAD =     1169940.1353
              DRAINS =           0.0000                DRAINS =           0.0000
            RECHARGE =     6292800.0000              RECHARGE =       55200.0000
       MANAGED WELLS =           0.0000         MANAGED WELLS =           0.0000

            TOTAL IN =   237365629.0971              TOTAL IN =     1232550.1277

          OUT:                                     OUT:
          ----                                     ----
             STORAGE =        2039.0396               STORAGE =          22.4070
       CONSTANT HEAD =           0.0000         CONSTANT HEAD =           0.0000
              DRAINS =   230508669.2643                DRAINS =     1187528.0090
            RECHARGE =           0.0000              RECHARGE =           0.0000
       MANAGED WELLS =     6855000.0000         MANAGED WELLS =       45000.0000

           TOTAL OUT =   237365708.3039             TOTAL OUT =     1232550.4160

            IN - OUT =         -79.2068              IN - OUT =          -0.2883

 PERCENT DISCREPANCY =           0.00     PERCENT DISCREPANCY =           0.00






         TIME SUMMARY AT END OF TIME STEP    1 IN STRESS PERIOD    2
                    SECONDS     MINUTES      HOURS       DAYS        YEARS
                    -----------------------------------------------------------
   TIME STEP LENGTH 7.86240E+06 1.31040E+05  2184.0      91.000     0.24914    
 STRESS PERIOD TIME 7.86240E+06 1.31040E+05  2184.0      91.000     0.24914    
         TOTAL TIME 1.58112E+07 2.63520E+05  4392.0      183.00     0.50103    
1
1
                            STRESS PERIOD NO.    3, LENGTH =   91.00000    
                            -----------------------------------------------

                              NUMBER OF TIME STEPS =     1

                               MULTIPLIER FOR DELT =     1.500

                            INITIAL TIME STEP SIZE =   91.00000    

 REUSING NON-PARAMETER DRAINS FROM LAST STRESS PERIOD

     40 DRAINS

                 RECHARGE =   0.00000    

Flows at Managed Wells for Stress Period    3

 Well no.  Layer   Row   Col   Stress Rate
 ----------------------------------------------------
        1      1    12    11   -15485.97923628778    
        2      1    16    17   -44514.02076371221    
        3      1    14    25    0.000000000000000    
 ----------------------------------------------------
                      Total:   -60000.00000000000    
 
 SOLVING FOR HEAD 


     4 CALLS TO PCG ROUTINE FOR TIME STEP   1 IN STRESS PERIOD    3
    16 TOTAL ITERATIONS

 OUTPUT CONTROL FOR STRESS PERIOD    3   TIME STEP    1
    PRINT BUDGET
    PRINT HEAD FOR ALL LAYERS
    SAVE BUDGET

           DRAINS   PERIOD    3   STEP   1
 DRAIN      1   LAYER   1   ROW    13   COL     1   RATE    -27401.8    
 DRAIN      2   LAYER   1   ROW    13   COL     2   RATE    -37382.8    
 DRAIN      3   LAYER   1   ROW    14   COL     3   RATE    -32932.2    
 DRAIN      4   LAYER   1   ROW    15   COL     4   RATE    -32303.1    
 DRAIN      5   LAYER   1   ROW    16   COL     5   RATE    -34146.0    
 DRAIN      6   LAYER   1   ROW    16   COL     6   RATE    -29746.3    
 DRAIN      7   LAYER   1   ROW    16   COL     7   RATE    -29449.0    
 DRAIN      8   LAYER   1   ROW    16   COL     8   RATE    -29483.6    
 DRAIN      9   LAYER   1   ROW    16   COL     9   RATE    -29374.7    
 DRAIN     10   LAYER   1   ROW    16   COL    10   RATE    -29176.4    
 DRAIN     11   LAYER   1   ROW    16   COL    11   RATE    -29500.8    
 DRAIN     12   LAYER   1   ROW    16   COL    12   RATE    -34362.9    
 DRAIN     13   LAYER   1   ROW    15   COL    13   RATE    -31587.2    
 DRAIN     14   LAYER   1   ROW    14   COL    14   RATE    -31440.6    
 DRAIN     15   LAYER   1   ROW    13   COL    15   RATE    -34178.3    
 DRAIN     16   LAYER   1   ROW    12   COL    16   RATE    -42045.7    
 DRAIN     17   LAYER   1   ROW    12   COL    17   RATE    -32725.3    
 DRAIN     18   LAYER   1   ROW    12   COL    18   RATE    -31591.3    
 DRAIN     19   LAYER   1   ROW    12   COL    19   RATE    -36753.3    
 DRAIN     20   LAYER   1   ROW    13   COL    20   RATE    -27005.1    
 DRAIN     21   LAYER   1   ROW    14   COL    21   RATE    -22769.6    
 DRAIN     22   LAYER   1   ROW    14   COL    22   RATE    -9630.28    
 DRAIN     23   LAYER   1   ROW     9   COL    30   RATE    -26868.1    
 DRAIN     24   LAYER   1   ROW     9   COL    29   RATE    -29545.9    
 DRAIN     25   LAYER   1   ROW     9   COL    28   RATE    -33974.2    
 DRAIN     26   LAYER   1   ROW     9   COL    27   RATE    -48432.8    
 DRAIN     27   LAYER   1   ROW    10   COL    26   RATE    -34335.8    
 DRAIN     28   LAYER   1   ROW    11   COL    25   RATE    -26029.3    
 DRAIN     29   LAYER   1   ROW    12   COL    24   RATE    -19670.8    
 DRAIN     30   LAYER   1   ROW    13   COL    23   RATE    -14958.6    
 DRAIN     31   LAYER   1   ROW    14   COL    22   RATE    -4815.14    
 DRAIN     32   LAYER   1   ROW    14   COL    22   RATE    -4815.14    
 DRAIN     33   LAYER   1   ROW    15   COL    23   RATE    -17902.5    
 DRAIN     34   LAYER   1   ROW    15   COL    24   RATE    -16712.4    
 DRAIN     35   LAYER   1   ROW    15   COL    25   RATE    -17389.1    
 DRAIN     36   LAYER   1   ROW    15   COL    26   RATE    -20723.2    
 DRAIN     37   LAYER   1   ROW    16   COL    27   RATE    -28527.6    
 DRAIN     38   LAYER   1   ROW    17   COL    28   RATE    -36246.8    
 DRAIN     39   LAYER   1   ROW    18   COL    29   RATE    -47995.4    
 DRAIN     40   LAYER   1   ROW    18   COL    30   RATE    -45217.8    
1
              HEAD IN LAYER   1 AT END OF TIME STEP   1 IN STRESS PERIOD    3
  ---------------------------------------------------------------------------

           1       2       3       4       5       6       7       8       9      10      11      12      13      14      15
          16      17      18      19      20      21      22      23      24      25      26      27      28      29      30
 ...........................................................................................................................
   1   100.50  100.00   99.50   99.00   98.50   98.00   97.50   97.00   96.50   96.00   95.50   95.00   94.50   94.00   93.50
        93.00   92.50   92.00   91.50   91.00   90.50   90.00   89.50   89.00   88.50   88.00   87.50   87.00   86.50   86.00
   2    95.75   95.50   95.15   94.75   94.31   93.86   93.39   92.90   92.39   91.88   91.35   90.81   90.26   89.71   89.15
        88.59   88.03   87.47   86.90   86.33   85.75   85.17   84.58   83.99   83.40   82.84   82.30   81.81   81.40   81.12
   3    91.26   91.11   90.85   90.52   90.15   89.74   89.29   88.81   88.30   87.77   87.21   86.63   86.03   85.43   84.81
        84.19   83.56   82.94   82.30   81.66   81.00   80.34   79.65   78.97   78.29   77.64   77.05   76.55   76.17   75.95
   4    86.92   86.81   86.62   86.35   86.02   85.65   85.22   84.75   84.23   83.68   83.09   82.46   81.82   81.15   80.47
        79.79   79.10   78.41   77.71   77.00   76.27   75.52   74.74   73.94   73.14   72.39   71.71   71.16   70.77   70.57
   5    82.68   82.60   82.45   82.23   81.95   81.60   81.20   80.73   80.20   79.62   78.99   78.32   77.61   76.88   76.14
        75.38   74.63   73.89   73.14   72.37   71.57   70.73   69.83   68.90   67.96   67.05   66.25   65.62   65.19   64.98
   6    78.53   78.47   78.35   78.18   77.93   77.62   77.23   76.77   76.23   75.62   74.94   74.21   73.44   72.63   71.80
        70.98   70.17   69.37   68.57   67.76   66.91   65.98   64.97   63.88   62.74   61.61   60.61   59.87   59.40   59.18
   7    74.42   74.39   74.32   74.19   73.99   73.71   73.34   72.88   72.32   71.67   70.95   70.15   69.29   68.39   67.47
        66.56   65.68   64.84   64.03   63.20   62.31   61.32   60.19   58.91   57.50   56.04   54.71   53.84   53.36   53.16
   8    70.36   70.35   70.33   70.26   70.12   69.89   69.54   69.08   68.50   67.81   67.02   66.14   65.19   64.17   63.13
        62.11   61.16   60.30   59.49   58.70   57.82   56.79   55.55   54.06   52.31   50.34   48.35   47.42   47.05   46.93
   9    66.29   66.33   66.38   66.41   66.35   66.17   65.86   65.40   64.79   64.04   63.17   62.21   61.14   59.98   58.76
        57.58   56.55   55.69   54.95   54.27   53.48   52.47   51.16   49.48   47.36   44.65   40.92   40.45   40.48   40.59
  10    62.18   62.29   62.47   62.63   62.69   62.60   62.33   61.87   61.22   60.39   59.41   58.38   57.20   55.84   54.35
        52.90   51.77   50.94   50.36   49.94   49.37   48.46   47.13   45.34   42.99   39.97   39.93   39.77   39.73   39.74
  11    57.97   58.16   58.58   58.96   59.19   59.19   58.98   58.52   57.83   56.88   55.70   54.70   53.42   51.82   49.91
        47.90   46.69   45.96   45.61   45.77   45.58   44.86   43.58   41.74   39.30   39.17   39.07   38.97   38.92   38.91
  12    53.55   53.82   54.71   55.45   55.89   56.02   55.86   55.42   54.70   53.60   51.82   51.29   49.98   48.09   45.58
        42.10   41.14   40.58   40.34   41.95   42.32   41.82   40.60   38.73   38.52   38.33   38.21   38.12   38.08   38.06
  13    48.87   48.87   50.99   52.24   52.91   53.13   53.01   52.60   51.93   50.99   49.78   48.66   47.11   45.00   42.21
        42.20   41.72   41.21   40.57   39.35   39.95   39.50   38.25   38.02   37.70   37.44   37.30   37.24   37.20   37.19
  14    49.67   49.27   48.15   49.59   50.37   50.59   50.44   50.05   49.45   48.65   47.65   46.47   44.81   42.57   42.89
        42.76   42.32   41.96   41.38   40.33   38.64   37.96   37.87   37.39   36.84   36.41   36.33   36.32   36.31   36.31
  15    50.86   50.39   49.32   47.62   48.40   48.40   48.13   47.70   47.15   46.49   45.72   44.75   43.08   43.87   44.04
        43.63   42.83   42.91   42.67   41.96   40.86   39.70   37.90   36.84   35.87   35.04   35.30   35.40   35.43   35.41
  16    52.54   52.09   51.14   49.61   47.21   46.49   45.97   45.47   44.97   44.46   43.98   43.72   45.21   45.81   45.74
        44.87   42.46   44.19   44.42   43.98   43.13   42.07   40.76   39.53   38.24   36.71   34.43   34.56   34.58   34.51
  17    54.66   54.29   53.55   52.46   51.16   50.32   49.69   49.15   48.66   48.23   47.91   47.82   48.21   48.40   48.23
        47.66   46.82   46.95   46.84   46.38   45.64   44.67   43.53   42.28   40.87   39.14   36.85   33.81   33.83   33.53
  18    57.14   56.86   56.30   55.53   54.67   53.93   53.31   52.77   52.30   51.90   51.59   51.43   51.43   51.36   51.12
        50.70   50.21   49.93   49.59   49.07   48.36   47.46   46.41   45.20   43.80   42.12   40.01   37.27   33.40   32.26
  19    59.92   59.70   59.27   58.70   58.05   57.42   56.85   56.33   55.87   55.47   55.14   54.89   54.70   54.48   54.19
        53.80   53.37   52.97   52.52   51.95   51.25   50.41   49.43   48.31   47.02   45.54   43.80   41.84   39.84   38.89
  20    62.91   62.73   62.39   61.93   61.40   60.86   60.33   59.84   59.38   58.97   58.60   58.28   57.99   57.68   57.34
        56.94   56.51   56.05   55.55   54.96   54.28   53.49   52.59   51.58   50.45   49.19   47.83   46.44   45.23   44.57
  21    66.09   65.93   65.63   65.23   64.77   64.27   63.78   63.30   62.84   62.42   62.02   61.64   61.29   60.92   60.53
        60.11   59.66   59.18   58.66   58.07   57.42   56.68   55.86   54.97   53.99   52.95   51.89   50.88   50.06   49.60
  22    69.42   69.26   68.98   68.60   68.16   67.69   67.21   66.74   66.28   65.83   65.41   64.99   64.59   64.18   63.75
        63.31   62.84   62.35   61.82   61.25   60.63   59.95   59.22   58.43   57.60   56.74   55.89   55.12   54.51   54.18
  23    72.90   72.72   72.41   72.02   71.58   71.12   70.64   70.16   69.69   69.23   68.78   68.33   67.89   67.45   66.99
        66.53   66.05   65.55   65.02   64.47   63.89   63.27   62.62   61.93   61.23   60.51   59.82   59.19   58.70   58.41
  24    76.57   76.30   75.93   75.50   75.03   74.56   74.07   73.58   73.10   72.62   72.14   71.67   71.19   70.72   70.24
        69.76   69.27   68.77   68.26   67.73   67.19   66.63   66.05   65.46   64.86   64.26   63.68   63.14   62.67   62.36
  25    80.50   80.00   79.50   79.00   78.50   78.00   77.50   77.00   76.50   76.00   75.50   75.00   74.50   74.00   73.50
        73.00   72.50   72.00   71.50   71.00   70.50   70.00   69.50   69.00   68.50   68.00   67.50   67.00   66.50   66.00
1
  VOLUMETRIC BUDGET FOR ENTIRE MODEL AT END OF TIME STEP    1, STRESS PERIOD   3
  ------------------------------------------------------------------------------

     CUMULATIVE VOLUMES      L**3       RATES FOR THIS TIME STEP      L**3/T
     ------------------                 ------------------------

           IN:                                      IN:
           ---                                      ---
             STORAGE =    21022553.6200               STORAGE =        5128.9194
       CONSTANT HEAD =   320100310.5332         CONSTANT HEAD =     1204212.1252
              DRAINS =           0.0000                DRAINS =           0.0000
            RECHARGE =     6292800.0000              RECHARGE =           0.0000
       MANAGED WELLS =           0.0000         MANAGED WELLS =           0.0000

            TOTAL IN =   347415664.1532              TOTAL IN =     1209341.0446

          OUT:                                     OUT:
          ----                                     ----
             STORAGE =       19722.5655               STORAGE =         194.3245
       CONSTANT HEAD =           0.0000         CONSTANT HEAD =           0.0000
              DRAINS =   335081026.0231                DRAINS =     1149146.7776
            RECHARGE =           0.0000              RECHARGE =           0.0000
       MANAGED WELLS =    12315000.0000         MANAGED WELLS =       60000.0000

           TOTAL OUT =   347415748.5886             TOTAL OUT =     1209341.1020

            IN - OUT =         -84.4353              IN - OUT =      -5.7457E-02

 PERCENT DISCREPANCY =           0.00     PERCENT DISCREPANCY =           0.00






         TIME SUMMARY AT END OF TIME STEP    1 IN STRESS PERIOD    3
                    SECONDS     MINUTES      HOURS       DAYS        YEARS
                    -----------------------------------------------------------
   TIME STEP LENGTH 7.86240E+06 1.31040E+05  2184.0      91.000     0.24914    
 STRESS PERIOD TIME 7.86240E+06 1.31040E+05  2184.0      91.000     0.24914    
         TOTAL TIME 2.36736E+07 3.94560E+05  6576.0      274.00     0.75017    
1
1
                            STRESS PERIOD NO.    4, LENGTH =   91.00000    
                            -----------------------------------------------

                              NUMBER OF TIME STEPS =     1

                               MULTIPLIER FOR DELT =     1.500

                            INITIAL TIME STEP SIZE =   91.00000    

 REUSING NON-PARAMETER DRAINS FROM LAST STRESS PERIOD

     40 DRAINS

                 RECHARGE =  1.000000E-03

Flows at Managed Wells for Stress Period    4

 Well no.  Layer   Row   Col   Stress Rate
 ----------------------------------------------------
        1      1    12    11   -15485.97923628778    
        2      1    16    17   -14514.02076371222    
 ----------------------------------------------------
                      Total:   -30000.00000000000    
 
 SOLVING FOR HEAD 


     4 CALLS TO PCG ROUTINE FOR TIME STEP   1 IN STRESS PERIOD    4
    15 TOTAL ITERATIONS

 OUTPUT CONTROL FOR STRESS PERIOD    4   TIME STEP    1
    PRINT BUDGET
    PRINT HEAD FOR ALL LAYERS
    SAVE BUDGET

           DRAINS   PERIOD    4   STEP   1
 DRAIN      1   LAYER   1   ROW    13   COL     1   RATE    -27794.8    
 DRAIN      2   LAYER   1   ROW    13   COL     2   RATE    -37854.4    
 DRAIN      3   LAYER   1   ROW    14   COL     3   RATE    -33408.2    
 DRAIN      4   LAYER   1   ROW    15   COL     4   RATE    -32775.5    
 DRAIN      5   LAYER   1   ROW    16   COL     5   RATE    -34597.7    
 DRAIN      6   LAYER   1   ROW    16   COL     6   RATE    -30157.0    
 DRAIN      7   LAYER   1   ROW    16   COL     7   RATE    -29882.3    
 DRAIN      8   LAYER   1   ROW    16   COL     8   RATE    -29959.9    
 DRAIN      9   LAYER   1   ROW    16   COL     9   RATE    -29919.0    
 DRAIN     10   LAYER   1   ROW    16   COL    10   RATE    -29838.3    
 DRAIN     11   LAYER   1   ROW    16   COL    11   RATE    -30414.3    
 DRAIN     12   LAYER   1   ROW    16   COL    12   RATE    -36084.8    
 DRAIN     13   LAYER   1   ROW    15   COL    13   RATE    -33929.0    
 DRAIN     14   LAYER   1   ROW    14   COL    14   RATE    -34212.1    
 DRAIN     15   LAYER   1   ROW    13   COL    15   RATE    -36786.9    
 DRAIN     16   LAYER   1   ROW    12   COL    16   RATE    -43743.3    
 DRAIN     17   LAYER   1   ROW    12   COL    17   RATE    -34510.2    
 DRAIN     18   LAYER   1   ROW    12   COL    18   RATE    -33254.1    
 DRAIN     19   LAYER   1   ROW    12   COL    19   RATE    -38172.4    
 DRAIN     20   LAYER   1   ROW    13   COL    20   RATE    -29009.3    
 DRAIN     21   LAYER   1   ROW    14   COL    21   RATE    -24779.7    
 DRAIN     22   LAYER   1   ROW    14   COL    22   RATE    -10132.2    
 DRAIN     23   LAYER   1   ROW     9   COL    30   RATE    -27163.0    
 DRAIN     24   LAYER   1   ROW     9   COL    29   RATE    -29843.1    
 DRAIN     25   LAYER   1   ROW     9   COL    28   RATE    -34283.1    
 DRAIN     26   LAYER   1   ROW     9   COL    27   RATE    -48812.6    
 DRAIN     27   LAYER   1   ROW    10   COL    26   RATE    -34749.6    
 DRAIN     28   LAYER   1   ROW    11   COL    25   RATE    -26458.6    
 DRAIN     29   LAYER   1   ROW    12   COL    24   RATE    -20111.8    
 DRAIN     30   LAYER   1   ROW    13   COL    23   RATE    -15461.9    
 DRAIN     31   LAYER   1   ROW    14   COL    22   RATE    -5066.08    
 DRAIN     32   LAYER   1   ROW    14   COL    22   RATE    -5066.08    
 DRAIN     33   LAYER   1   ROW    15   COL    23   RATE    -19050.9    
 DRAIN     34   LAYER   1   ROW    15   COL    24   RATE    -17359.2    
 DRAIN     35   LAYER   1   ROW    15   COL    25   RATE    -17882.8    
 DRAIN     36   LAYER   1   ROW    15   COL    26   RATE    -21178.3    
 DRAIN     37   LAYER   1   ROW    16   COL    27   RATE    -29063.8    
 DRAIN     38   LAYER   1   ROW    17   COL    28   RATE    -36761.1    
 DRAIN     39   LAYER   1   ROW    18   COL    29   RATE    -48454.1    
 DRAIN     40   LAYER   1   ROW    18   COL    30   RATE    -45572.2    
1
              HEAD IN LAYER   1 AT END OF TIME STEP   1 IN STRESS PERIOD    4
  ---------------------------------------------------------------------------

           1       2       3       4       5       6       7       8       9      10      11      12      13      14      15
          16      17      18      19      20      21      22      23      24      25      26      27      28      29      30
 ...........................................................................................................................
   1   100.50  100.00   99.50   99.00   98.50   98.00   97.50   97.00   96.50   96.00   95.50   95.00   94.50   94.00   93.50
        93.00   92.50   92.00   91.50   91.00   90.50   90.00   89.50   89.00   88.50   88.00   87.50   87.00   86.50   86.00
   2    95.79   95.54   95.19   94.79   94.36   93.90   93.43   92.94   92.44   91.92   91.39   90.85   90.31   89.75   89.19
        88.63   88.07   87.51   86.94   86.37   85.79   85.20   84.61   84.02   83.44   82.87   82.33   81.84   81.43   81.15
   3    91.33   91.18   90.92   90.60   90.22   89.81   89.36   88.88   88.38   87.84   87.28   86.71   86.11   85.50   84.88
        84.26   83.64   83.01   82.37   81.73   81.07   80.40   79.72   79.03   78.35   77.70   77.10   76.60   76.22   76.00
   4    87.02   86.91   86.72   86.45   86.13   85.75   85.32   84.85   84.34   83.78   83.19   82.57   81.92   81.25   80.57
        79.89   79.20   78.51   77.81   77.10   76.36   75.60   74.82   74.02   73.22   72.46   71.78   71.23   70.84   70.64
   5    82.80   82.72   82.57   82.35   82.07   81.73   81.32   80.85   80.33   79.75   79.12   78.45   77.74   77.01   76.26
        75.50   74.75   74.00   73.25   72.48   71.67   70.83   69.93   68.99   68.05   67.13   66.33   65.69   65.27   65.05
   6    78.66   78.60   78.49   78.31   78.07   77.76   77.37   76.91   76.37   75.76   75.09   74.36   73.58   72.77   71.94
        71.11   70.30   69.50   68.70   67.88   67.02   66.09   65.08   63.98   62.83   61.69   60.69   59.94   59.47   59.25
   7    74.56   74.53   74.46   74.33   74.13   73.86   73.49   73.03   72.47   71.83   71.10   70.30   69.44   68.54   67.62
        66.71   65.82   64.98   64.16   63.33   62.43   61.43   60.29   59.01   57.59   56.12   54.78   53.90   53.42   53.22
   8    70.50   70.49   70.47   70.41   70.27   70.04   69.70   69.24   68.66   67.97   67.18   66.30   65.35   64.33   63.28
        62.26   61.30   60.44   59.63   58.82   57.94   56.90   55.65   54.16   52.39   50.40   48.40   47.47   47.09   46.98
   9    66.42   66.46   66.52   66.55   66.50   66.33   66.02   65.56   64.95   64.20   63.33   62.37   61.30   60.14   58.91
        57.73   56.69   55.82   55.08   54.39   53.60   52.58   51.26   49.56   47.42   44.69   40.94   40.46   40.49   40.61
  10    62.30   62.41   62.60   62.77   62.83   62.74   62.48   62.02   61.38   60.55   59.57   58.54   57.36   55.99   54.50
        53.04   51.90   51.07   50.48   50.06   49.48   48.56   47.22   45.40   43.04   39.99   39.96   39.81   39.77   39.78
  11    58.06   58.27   58.69   59.08   59.31   59.33   59.12   58.67   57.98   57.03   55.86   54.86   53.58   51.97   50.05
        48.02   46.81   46.06   45.71   45.87   45.68   44.95   43.65   41.78   39.32   39.20   39.11   39.02   38.97   38.96
  12    53.62   53.90   54.80   55.55   56.00   56.14   55.98   55.55   54.83   53.74   51.97   51.44   50.13   48.24   45.71
        42.19   41.23   40.66   40.41   42.04   42.42   41.89   40.65   38.76   38.55   38.38   38.26   38.18   38.14   38.12
  13    48.89   48.89   51.04   52.31   53.00   53.23   53.12   52.72   52.05   51.12   49.91   48.80   47.25   45.14   42.34
        42.54   42.14   41.60   40.85   39.45   40.04   39.56   38.27   38.05   37.75   37.49   37.36   37.30   37.27   37.26
  14    49.71   49.30   48.17   49.64   50.44   50.66   50.53   50.14   49.54   48.75   47.77   46.59   44.94   42.71   43.33
        43.47   43.20   42.72   41.94   40.66   38.74   38.01   37.92   37.43   36.88   36.46   36.39   36.38   36.38   36.38
  15    50.92   50.44   49.37   47.64   48.44   48.45   48.19   47.76   47.22   46.57   45.80   44.85   43.20   44.27   44.79
        44.82   44.46   44.15   43.53   42.52   41.19   39.88   37.95   36.87   35.89   35.06   35.34   35.45   35.49   35.48
  16    52.61   52.16   51.20   49.65   47.23   46.51   45.99   45.50   45.00   44.49   44.02   43.80   45.50   46.39   46.73
        46.55   45.65   45.91   45.49   44.68   43.60   42.37   40.94   39.66   38.33   36.77   34.45   34.60   34.63   34.56
  17    54.75   54.38   53.63   52.54   51.23   50.38   49.75   49.22   48.75   48.34   48.06   48.05   48.61   49.04   49.18
        49.02   48.60   48.34   47.85   47.11   46.15   45.04   43.79   42.47   41.00   39.24   36.91   33.84   33.87   33.57
  18    57.24   56.96   56.40   55.62   54.76   54.02   53.41   52.88   52.43   52.06   51.81   51.73   51.85   51.96   51.93
        51.73   51.39   50.99   50.45   49.74   48.87   47.85   46.70   45.42   43.97   42.25   40.10   37.32   33.42   32.28
  19    60.02   59.80   59.38   58.80   58.15   57.53   56.97   56.46   56.03   55.66   55.38   55.20   55.11   55.02   54.86
        54.59   54.23   53.78   53.22   52.53   51.72   50.78   49.72   48.54   47.21   45.68   43.92   41.92   39.90   38.95
  20    63.02   62.84   62.50   62.04   61.51   60.97   60.45   59.97   59.54   59.16   58.84   58.57   58.35   58.13   57.87
        57.55   57.15   56.68   56.11   55.45   54.69   53.83   52.86   51.80   50.63   49.34   47.95   46.54   45.31   44.65
  21    66.18   66.03   65.73   65.33   64.87   64.38   63.90   63.43   62.99   62.59   62.23   61.90   61.59   61.29   60.95
        60.58   60.14   59.65   59.09   58.46   57.75   56.97   56.10   55.17   54.16   53.09   52.01   50.98   50.15   49.69
  22    69.50   69.34   69.06   68.69   68.25   67.79   67.32   66.85   66.41   65.98   65.58   65.20   64.83   64.46   64.07
        63.65   63.19   62.69   62.14   61.54   60.89   60.17   59.41   58.59   57.74   56.86   56.00   55.21   54.60   54.25
  23    72.97   72.78   72.48   72.09   71.65   71.19   70.72   70.25   69.79   69.34   68.90   68.48   68.06   67.64   67.20
        66.75   66.28   65.78   65.24   64.67   64.07   63.43   62.76   62.05   61.33   60.60   59.90   59.26   58.76   58.47
  24    76.60   76.34   75.96   75.53   75.07   74.60   74.11   73.63   73.15   72.68   72.21   71.74   71.28   70.82   70.35
        69.87   69.39   68.88   68.37   67.83   67.28   66.71   66.12   65.53   64.92   64.31   63.72   63.18   62.71   62.40
  25    80.50   80.00   79.50   79.00   78.50   78.00   77.50   77.00   76.50   76.00   75.50   75.00   74.50   74.00   73.50
        73.00   72.50   72.00   71.50   71.00   70.50   70.00   69.50   69.00   68.50   68.00   67.50   67.00   66.50   66.00
1
  VOLUMETRIC BUDGET FOR ENTIRE MODEL AT END OF TIME STEP    1, STRESS PERIOD   4
  ------------------------------------------------------------------------------

     CUMULATIVE VOLUMES      L**3       RATES FOR THIS TIME STEP      L**3/T
     ------------------                 ------------------------

           IN:                                      IN:
           ---                                      ---
             STORAGE =    21022553.6200               STORAGE =           0.0000
       CONSTANT HEAD =   428260165.3208         CONSTANT HEAD =     1188569.8328
              DRAINS =           0.0000                DRAINS =           0.0000
            RECHARGE =     8804400.0000              RECHARGE =       27600.0000
       MANAGED WELLS =           0.0000         MANAGED WELLS =           0.0000

            TOTAL IN =   458087118.9408              TOTAL IN =     1216169.8328

          OUT:                                     OUT:
          ----                                     ----
             STORAGE =      257786.0362               STORAGE =        2616.0821
       CONSTANT HEAD =           0.0000         CONSTANT HEAD =           0.0000
              DRAINS =   442784409.0403                DRAINS =     1183553.6595
            RECHARGE =           0.0000              RECHARGE =           0.0000
       MANAGED WELLS =    15045000.0000         MANAGED WELLS =       30000.0000

           TOTAL OUT =   458087195.0765             TOTAL OUT =     1216169.7416

            IN - OUT =         -76.1357              IN - OUT =       9.1204E-02

 PERCENT DISCREPANCY =           0.00     PERCENT DISCREPANCY =           0.00






         TIME SUMMARY AT END OF TIME STEP    1 IN STRESS PERIOD    4
                    SECONDS     MINUTES      HOURS       DAYS        YEARS
                    -----------------------------------------------------------
   TIME STEP LENGTH 7.86240E+06 1.31040E+05  2184.0      91.000     0.24914    
 STRESS PERIOD TIME 7.86240E+06 1.31040E+05  2184.0      91.000     0.24914    
         TOTAL TIME 3.15360E+07 5.25600E+05  8760.0      365.00     0.99932    
1
1
                            STRESS PERIOD NO.    5, LENGTH =   92.00000    
                            -----------------------------------------------

                              NUMBER OF TIME STEPS =     1

                               MULTIPLIER FOR DELT =     1.500

                            INITIAL TIME STEP SIZE =   92.00000    

 REUSING NON-PARAMETER DRAINS FROM LAST STRESS PERIOD

     40 DRAINS

                 RECHARGE =  5.000000E-04

Flows at Managed Wells for Stress Period    5

 Well no.  Layer   Row   Col   Stress Rate
 ----------------------------------------------------
        1      1    12    11   -15485.97923628778    
        2      1    16    17   -14514.02076371222    
 ----------------------------------------------------
                      Total:   -30000.00000000000    
 
 SOLVING FOR HEAD 


     3 CALLS TO PCG ROUTINE FOR TIME STEP   1 IN STRESS PERIOD    5
    11 TOTAL ITERATIONS

 OUTPUT CONTROL FOR STRESS PERIOD    5   TIME STEP    1
    PRINT BUDGET
    PRINT HEAD FOR ALL LAYERS
    SAVE BUDGET

           DRAINS   PERIOD    5   STEP   1
 DRAIN      1   LAYER   1   ROW    13   COL     1   RATE    -27599.6    
 DRAIN      2   LAYER   1   ROW    13   COL     2   RATE    -37620.8    
 DRAIN      3   LAYER   1   ROW    14   COL     3   RATE    -33178.2    
 DRAIN      4   LAYER   1   ROW    15   COL     4   RATE    -32554.3    
 DRAIN      5   LAYER   1   ROW    16   COL     5   RATE    -34398.8    
 DRAIN      6   LAYER   1   ROW    16   COL     6   RATE    -29985.7    
 DRAIN      7   LAYER   1   ROW    16   COL     7   RATE    -29714.7    
 DRAIN      8   LAYER   1   ROW    16   COL     8   RATE    -29794.7    
 DRAIN      9   LAYER   1   ROW    16   COL     9   RATE    -29758.0    
 DRAIN     10   LAYER   1   ROW    16   COL    10   RATE    -29683.8    
 DRAIN     11   LAYER   1   ROW    16   COL    11   RATE    -30268.1    
 DRAIN     12   LAYER   1   ROW    16   COL    12   RATE    -35938.3    
 DRAIN     13   LAYER   1   ROW    15   COL    13   RATE    -33771.4    
 DRAIN     14   LAYER   1   ROW    14   COL    14   RATE    -34051.4    
 DRAIN     15   LAYER   1   ROW    13   COL    15   RATE    -36619.5    
 DRAIN     16   LAYER   1   ROW    12   COL    16   RATE    -43559.0    
 DRAIN     17   LAYER   1   ROW    12   COL    17   RATE    -34370.8    
 DRAIN     18   LAYER   1   ROW    12   COL    18   RATE    -33120.5    
 DRAIN     19   LAYER   1   ROW    12   COL    19   RATE    -38015.8    
 DRAIN     20   LAYER   1   ROW    13   COL    20   RATE    -28883.1    
 DRAIN     21   LAYER   1   ROW    14   COL    21   RATE    -24676.0    
 DRAIN     22   LAYER   1   ROW    14   COL    22   RATE    -10083.6    
 DRAIN     23   LAYER   1   ROW     9   COL    30   RATE    -27024.8    
 DRAIN     24   LAYER   1   ROW     9   COL    29   RATE    -29704.1    
 DRAIN     25   LAYER   1   ROW     9   COL    28   RATE    -34139.3    
 DRAIN     26   LAYER   1   ROW     9   COL    27   RATE    -48637.3    
 DRAIN     27   LAYER   1   ROW    10   COL    26   RATE    -34568.6    
 DRAIN     28   LAYER   1   ROW    11   COL    25   RATE    -26285.3    
 DRAIN     29   LAYER   1   ROW    12   COL    24   RATE    -19958.6    
 DRAIN     30   LAYER   1   ROW    13   COL    23   RATE    -15339.1    
 DRAIN     31   LAYER   1   ROW    14   COL    22   RATE    -5041.82    
 DRAIN     32   LAYER   1   ROW    14   COL    22   RATE    -5041.82    
 DRAIN     33   LAYER   1   ROW    15   COL    23   RATE    -18942.7    
 DRAIN     34   LAYER   1   ROW    15   COL    24   RATE    -17258.9    
 DRAIN     35   LAYER   1   ROW    15   COL    25   RATE    -17775.8    
 DRAIN     36   LAYER   1   ROW    15   COL    26   RATE    -21046.7    
 DRAIN     37   LAYER   1   ROW    16   COL    27   RATE    -28908.0    
 DRAIN     38   LAYER   1   ROW    17   COL    28   RATE    -36600.6    
 DRAIN     39   LAYER   1   ROW    18   COL    29   RATE    -48302.5    
 DRAIN     40   LAYER   1   ROW    18   COL    30   RATE    -45442.5    
1
              HEAD IN LAYER   1 AT END OF TIME STEP   1 IN STRESS PERIOD    5
  ---------------------------------------------------------------------------

           1       2       3       4       5       6       7       8       9      10      11      12      13      14      15
          16      17      18      19      20      21      22      23      24      25      26      27      28      29      30
 ...........................................................................................................................
   1   100.50  100.00   99.50   99.00   98.50   98.00   97.50   97.00   96.50   96.00   95.50   95.00   94.50   94.00   93.50
        93.00   92.50   92.00   91.50   91.00   90.50   90.00   89.50   89.00   88.50   88.00   87.50   87.00   86.50   86.00
   2    95.77   95.52   95.17   94.77   94.33   93.88   93.41   92.92   92.42   91.90   91.37   90.83   90.29   89.73   89.18
        88.61   88.05   87.49   86.92   86.35   85.77   85.18   84.59   84.00   83.42   82.85   82.32   81.83   81.41   81.13
   3    91.30   91.14   90.89   90.56   90.19   89.77   89.33   88.85   88.34   87.81   87.25   86.67   86.07   85.47   84.85
        84.23   83.60   82.97   82.34   81.70   81.04   80.37   79.69   79.00   78.32   77.67   77.08   76.58   76.20   75.98
   4    86.97   86.86   86.66   86.40   86.07   85.70   85.27   84.80   84.29   83.73   83.14   82.52   81.87   81.20   80.53
        79.84   79.15   78.46   77.76   77.05   76.32   75.56   74.78   73.98   73.18   72.42   71.75   71.20   70.81   70.60
   5    82.74   82.66   82.51   82.29   82.01   81.66   81.26   80.79   80.27   79.69   79.06   78.39   77.68   76.95   76.20
        75.45   74.70   73.95   73.20   72.43   71.63   70.78   69.89   68.95   68.00   67.09   66.29   65.66   65.23   65.02
   6    78.59   78.53   78.42   78.24   78.00   77.69   77.30   76.84   76.30   75.69   75.02   74.29   73.52   72.71   71.88
        71.06   70.24   69.44   68.64   67.83   66.97   66.04   65.03   63.93   62.79   61.65   60.65   59.91   59.44   59.22
   7    74.49   74.46   74.38   74.26   74.06   73.78   73.42   72.96   72.40   71.76   71.03   70.23   69.38   68.48   67.56
        66.65   65.77   64.92   64.11   63.27   62.38   61.38   60.25   58.96   57.55   56.08   54.75   53.87   53.39   53.19
   8    70.42   70.42   70.40   70.33   70.20   69.97   69.62   69.16   68.59   67.90   67.11   66.23   65.28   64.26   63.22
        62.20   61.25   60.38   59.57   58.77   57.89   56.86   55.61   54.11   52.36   50.37   48.37   47.44   47.07   46.96
   9    66.35   66.39   66.45   66.48   66.42   66.25   65.94   65.48   64.88   64.13   63.26   62.30   61.24   60.08   58.86
        57.67   56.64   55.77   55.03   54.35   53.55   52.54   51.21   49.53   47.39   44.67   40.93   40.46   40.49   40.60
  10    62.24   62.35   62.53   62.70   62.76   62.67   62.41   61.95   61.31   60.48   59.50   58.48   57.30   55.94   54.45
        53.00   51.86   51.03   50.44   50.02   49.44   48.52   47.18   45.37   43.02   39.98   39.95   39.79   39.75   39.76
  11    58.02   58.21   58.63   59.02   59.25   59.26   59.05   58.60   57.92   56.97   55.80   54.80   53.53   51.92   50.01
        47.99   46.78   46.04   45.68   45.84   45.65   44.92   43.63   41.77   39.31   39.19   39.10   39.00   38.95   38.94
  12    53.59   53.86   54.75   55.50   55.95   56.08   55.92   55.49   54.78   53.68   51.91   51.39   50.09   48.20   45.68
        42.18   41.22   40.66   40.40   42.02   42.39   41.87   40.63   38.75   38.54   38.36   38.24   38.16   38.11   38.10
  13    48.88   48.88   51.02   52.27   52.95   53.18   53.07   52.67   52.01   51.07   49.87   48.76   47.22   45.12   42.33
        42.53   42.13   41.59   40.84   39.44   40.03   39.55   38.27   38.04   37.73   37.47   37.34   37.28   37.24   37.23
  14    49.69   49.29   48.16   49.62   50.41   50.63   50.49   50.10   49.51   48.71   47.73   46.56   44.92   42.70   43.32
        43.46   43.19   42.72   41.93   40.65   38.73   38.01   37.91   37.42   36.87   36.44   36.37   36.36   36.35   36.35
  15    50.89   50.41   49.35   47.63   48.42   48.43   48.16   47.74   47.20   46.55   45.78   44.83   43.19   44.26   44.78
        44.81   44.45   44.15   43.52   42.50   41.17   39.87   37.95   36.86   35.89   35.05   35.33   35.43   35.46   35.45
  16    52.58   52.13   51.18   49.63   47.22   46.50   45.99   45.49   44.99   44.48   44.01   43.80   45.49   46.37   46.72
        46.54   45.64   45.90   45.48   44.66   43.58   42.35   40.93   39.64   38.32   36.76   34.45   34.58   34.61   34.54
  17    54.70   54.34   53.59   52.50   51.20   50.36   49.73   49.20   48.73   48.32   48.04   48.03   48.59   49.02   49.16
        49.00   48.59   48.32   47.83   47.09   46.13   45.02   43.77   42.45   40.98   39.22   36.89   33.83   33.85   33.56
  18    57.20   56.91   56.36   55.59   54.72   53.99   53.38   52.85   52.40   52.03   51.78   51.71   51.83   51.94   51.91
        51.72   51.37   50.97   50.43   49.72   48.84   47.82   46.67   45.39   43.94   42.22   40.08   37.31   33.42   32.27
  19    59.97   59.75   59.33   58.75   58.11   57.49   56.93   56.43   55.99   55.62   55.35   55.17   55.08   54.99   54.83
        54.57   54.21   53.76   53.20   52.51   51.69   50.75   49.69   48.51   47.18   45.65   43.89   41.90   39.88   38.93
  20    62.97   62.79   62.45   61.99   61.47   60.93   60.41   59.94   59.50   59.12   58.80   58.54   58.32   58.11   57.85
        57.52   57.13   56.65   56.09   55.42   54.66   53.80   52.83   51.77   50.60   49.31   47.92   46.52   45.29   44.63
  21    66.14   65.98   65.69   65.29   64.83   64.34   63.86   63.39   62.96   62.56   62.20   61.87   61.56   61.26   60.93
        60.55   60.12   59.63   59.07   58.43   57.72   56.93   56.07   55.13   54.12   53.06   51.98   50.95   50.12   49.66
  22    69.46   69.31   69.02   68.65   68.22   67.75   67.28   66.82   66.37   65.95   65.55   65.17   64.80   64.43   64.04
        63.62   63.17   62.67   62.12   61.52   60.86   60.15   59.38   58.56   57.71   56.83   55.97   55.18   54.57   54.23
  23    72.94   72.75   72.45   72.06   71.63   71.16   70.69   70.22   69.76   69.31   68.88   68.45   68.04   67.62   67.18
        66.73   66.26   65.76   65.22   64.65   64.05   63.41   62.73   62.03   61.31   60.58   59.88   59.24   58.74   58.45
  24    76.59   76.32   75.95   75.52   75.06   74.58   74.10   73.62   73.14   72.66   72.19   71.73   71.27   70.81   70.34
        69.86   69.37   68.87   68.35   67.82   67.27   66.70   66.11   65.51   64.91   64.30   63.71   63.16   62.70   62.38
  25    80.50   80.00   79.50   79.00   78.50   78.00   77.50   77.00   76.50   76.00   75.50   75.00   74.50   74.00   73.50
        73.00   72.50   72.00   71.50   71.00   70.50   70.00   69.50   69.00   68.50   68.00   67.50   67.00   66.50   66.00
1
  VOLUMETRIC BUDGET FOR ENTIRE MODEL AT END OF TIME STEP    1, STRESS PERIOD   5
  ------------------------------------------------------------------------------

     CUMULATIVE VOLUMES      L**3       RATES FOR THIS TIME STEP      L**3/T
     ------------------                 ------------------------

           IN:                                      IN:
           ---                                      ---
             STORAGE =    21069048.8971               STORAGE =         505.3834
       CONSTANT HEAD =   538049164.3145         CONSTANT HEAD =     1193358.6847
              DRAINS =           0.0000                DRAINS =           0.0000
            RECHARGE =    10074000.0000              RECHARGE =       13800.0000
       MANAGED WELLS =           0.0000         MANAGED WELLS =           0.0000

            TOTAL IN =   569192213.2116              TOTAL IN =     1207664.0682

          OUT:                                     OUT:
          ----                                     ----
             STORAGE =      257786.0362               STORAGE =           0.0000
       CONSTANT HEAD =           0.0000         CONSTANT HEAD =           0.0000
              DRAINS =   551129554.4005                DRAINS =     1177664.6235
            RECHARGE =           0.0000              RECHARGE =           0.0000
       MANAGED WELLS =    17805000.0000         MANAGED WELLS =       30000.0000

           TOTAL OUT =   569192340.4367             TOTAL OUT =     1207664.6235

            IN - OUT =        -127.2252              IN - OUT =          -0.5553

 PERCENT DISCREPANCY =           0.00     PERCENT DISCREPANCY =           0.00






         TIME SUMMARY AT END OF TIME STEP    1 IN STRESS PERIOD    5
                    SECONDS     MINUTES      HOURS       DAYS        YEARS
                    -----------------------------------------------------------
   TIME STEP LENGTH 7.94880E+06 1.32480E+05  2208.0      92.000     0.25188    
 STRESS PERIOD TIME 7.94880E+06 1.32480E+05  2208.0      92.000     0.25188    
         TOTAL TIME 3.94848E+07 6.58080E+05  10968.      457.00      1.2512    
1
1
                            STRESS PERIOD NO.    6, LENGTH =   91.00000    
                            -----------------------------------------------

                              NUMBER OF TIME STEPS =     1

                               MULTIPLIER FOR DELT =     1.500

                            INITIAL TIME STEP SIZE =   91.00000    

 REUSING NON-PARAMETER DRAINS FROM LAST STRESS PERIOD

     40 DRAINS

                 RECHARGE =  2.000000E-03

Flows at Managed Wells for Stress Period    6

 Well no.  Layer   Row   Col   Stress Rate
 ----------------------------------------------------
        1      1    12    11   -15485.97923628778    
        2      1    16    17    0.000000000000000    
        3      1    14    25   -29514.02076371221    
 ----------------------------------------------------
                      Total:   -45000.00000000000    
 
 SOLVING FOR HEAD 


     4 CALLS TO PCG ROUTINE FOR TIME STEP   1 IN STRESS PERIOD    6
    15 TOTAL ITERATIONS

 OUTPUT CONTROL FOR STRESS PERIOD    6   TIME STEP    1
    PRINT BUDGET
    PRINT HEAD FOR ALL LAYERS
    SAVE BUDGET

           DRAINS   PERIOD    6   STEP   1
 DRAIN      1   LAYER   1   ROW    13   COL     1   RATE    -28256.9    
 DRAIN      2   LAYER   1   ROW    13   COL     2   RATE    -38411.8    
 DRAIN      3   LAYER   1   ROW    14   COL     3   RATE    -33957.0    
 DRAIN      4   LAYER   1   ROW    15   COL     4   RATE    -33309.3    
 DRAIN      5   LAYER   1   ROW    16   COL     5   RATE    -35092.8    
 DRAIN      6   LAYER   1   ROW    16   COL     6   RATE    -30599.6    
 DRAIN      7   LAYER   1   ROW    16   COL     7   RATE    -30337.3    
 DRAIN      8   LAYER   1   ROW    16   COL     8   RATE    -30441.3    
 DRAIN      9   LAYER   1   ROW    16   COL     9   RATE    -30439.8    
 DRAIN     10   LAYER   1   ROW    16   COL    10   RATE    -30425.0    
 DRAIN     11   LAYER   1   ROW    16   COL    11   RATE    -31142.7    
 DRAIN     12   LAYER   1   ROW    16   COL    12   RATE    -37289.3    
 DRAIN     13   LAYER   1   ROW    15   COL    13   RATE    -35477.4    
 DRAIN     14   LAYER   1   ROW    14   COL    14   RATE    -35982.8    
 DRAIN     15   LAYER   1   ROW    13   COL    15   RATE    -38458.7    
 DRAIN     16   LAYER   1   ROW    12   COL    16   RATE    -44917.8    
 DRAIN     17   LAYER   1   ROW    12   COL    17   RATE    -35660.2    
 DRAIN     18   LAYER   1   ROW    12   COL    18   RATE    -34310.9    
 DRAIN     19   LAYER   1   ROW    12   COL    19   RATE    -39069.0    
 DRAIN     20   LAYER   1   ROW    13   COL    20   RATE    -30133.1    
 DRAIN     21   LAYER   1   ROW    14   COL    21   RATE    -25768.8    
 DRAIN     22   LAYER   1   ROW    14   COL    22   RATE    -10009.7    
 DRAIN     23   LAYER   1   ROW     9   COL    30   RATE    -27172.7    
 DRAIN     24   LAYER   1   ROW     9   COL    29   RATE    -29839.1    
 DRAIN     25   LAYER   1   ROW     9   COL    28   RATE    -34267.5    
 DRAIN     26   LAYER   1   ROW     9   COL    27   RATE    -48838.5    
 DRAIN     27   LAYER   1   ROW    10   COL    26   RATE    -34316.6    
 DRAIN     28   LAYER   1   ROW    11   COL    25   RATE    -25135.7    
 DRAIN     29   LAYER   1   ROW    12   COL    24   RATE    -17896.5    
 DRAIN     30   LAYER   1   ROW    13   COL    23   RATE    -13645.7    
 DRAIN     31   LAYER   1   ROW    14   COL    22   RATE    -5004.87    
 DRAIN     32   LAYER   1   ROW    14   COL    22   RATE    -5004.87    
 DRAIN     33   LAYER   1   ROW    15   COL    23   RATE    -18505.4    
 DRAIN     34   LAYER   1   ROW    15   COL    24   RATE    -14566.6    
 DRAIN     35   LAYER   1   ROW    15   COL    25   RATE    -11423.0    
 DRAIN     36   LAYER   1   ROW    15   COL    26   RATE    -17623.9    
 DRAIN     37   LAYER   1   ROW    16   COL    27   RATE    -28248.6    
 DRAIN     38   LAYER   1   ROW    17   COL    28   RATE    -36640.5    
 DRAIN     39   LAYER   1   ROW    18   COL    29   RATE    -48608.7    
 DRAIN     40   LAYER   1   ROW    18   COL    30   RATE    -45670.1    
1
              HEAD IN LAYER   1 AT END OF TIME STEP   1 IN STRESS PERIOD    6
  ---------------------------------------------------------------------------

           1       2       3       4       5       6       7       8       9      10      11      12      13      14      15
          16      17      18      19      20      21      22      23      24      25      26      27      28      29      30
 ...........................................................................................................................
   1   100.50  100.00   99.50   99.00   98.50   98.00   97.50   97.00   96.50   96.00   95.50   95.00   94.50   94.00   93.50
        93.00   92.50   92.00   91.50   91.00   90.50   90.00   89.50   89.00   88.50   88.00   87.50   87.00   86.50   86.00
   2    95.84   95.59   95.24   94.84   94.40   93.95   93.48   92.99   92.48   91.97   91.44   90.90   90.35   89.80   89.24
        88.68   88.11   87.55   86.98   86.40   85.83   85.24   84.65   84.05   83.47   82.90   82.36   81.87   81.46   81.18
   3    91.42   91.27   91.01   90.69   90.32   89.90   89.45   88.98   88.47   87.93   87.37   86.79   86.20   85.59   84.97
        84.34   83.72   83.08   82.45   81.80   81.14   80.47   79.78   79.09   78.40   77.75   77.16   76.65   76.27   76.05
   4    87.14   87.03   86.84   86.57   86.25   85.87   85.45   84.98   84.46   83.91   83.31   82.69   82.04   81.37   80.69
        80.00   79.30   78.61   77.91   77.19   76.46   75.69   74.90   74.10   73.29   72.53   71.85   71.30   70.91   70.70
   5    82.95   82.87   82.72   82.50   82.22   81.88   81.47   81.01   80.48   79.90   79.27   78.59   77.88   77.15   76.40
        75.64   74.88   74.13   73.37   72.59   71.78   70.93   70.03   69.08   68.13   67.21   66.40   65.77   65.34   65.12
   6    78.82   78.77   78.65   78.48   78.24   77.93   77.54   77.08   76.54   75.93   75.25   74.52   73.74   72.93   72.10
        71.26   70.44   69.63   68.83   68.01   67.14   66.20   65.17   64.07   62.91   61.77   60.76   60.01   59.54   59.32
   7    74.74   74.71   74.63   74.51   74.31   74.04   73.68   73.21   72.66   72.01   71.28   70.48   69.62   68.71   67.78
        66.86   65.97   65.12   64.29   63.45   62.55   61.54   60.39   59.09   57.66   56.18   54.84   53.96   53.48   53.27
   8    70.67   70.67   70.65   70.59   70.46   70.23   69.89   69.43   68.85   68.16   67.36   66.48   65.52   64.50   63.44
        62.41   61.45   60.57   59.76   58.94   58.05   57.00   55.74   54.22   52.45   50.45   48.44   47.50   47.12   47.01
   9    66.59   66.63   66.70   66.73   66.68   66.51   66.21   65.75   65.14   64.39   63.52   62.55   61.48   60.30   59.07
        57.87   56.83   55.95   55.20   54.50   53.70   52.66   51.32   49.60   47.45   44.71   40.94   40.46   40.49   40.61
  10    62.45   62.56   62.76   62.93   63.00   62.92   62.66   62.21   61.56   60.73   59.75   58.72   57.52   56.15   54.65
        53.17   52.02   51.18   50.58   50.15   49.55   48.61   47.25   45.41   43.02   39.97   39.92   39.76   39.72   39.75
  11    58.18   58.39   58.82   59.23   59.47   59.49   59.28   58.84   58.15   57.21   56.03   55.02   53.73   52.11   50.18
        48.13   46.90   46.15   45.79   45.95   45.74   44.98   43.65   41.74   39.26   39.07   38.98   38.91   38.89   38.89
  12    53.70   53.98   54.90   55.67   56.13   56.28   56.13   55.71   54.99   53.90   52.12   51.59   50.27   48.36   45.80
        42.25   41.28   40.72   40.45   42.09   42.46   41.90   40.60   38.64   38.20   38.04   38.01   38.00   38.01   38.02
  13    48.91   48.92   51.11   52.40   53.10   53.35   53.24   52.85   52.19   51.25   50.05   48.93   47.37   45.24   42.42
        42.74   42.39   41.82   41.02   39.51   40.08   39.54   38.18   37.60   36.85   36.88   36.99   37.07   37.11   37.13
  14    49.76   49.35   48.20   49.70   50.51   50.75   50.63   50.24   49.65   48.86   47.88   46.70   45.04   42.80   43.58
        43.88   43.69   43.16   42.26   40.85   38.79   38.00   37.70   36.69   34.71   35.62   35.98   36.15   36.23   36.26
  15    50.99   50.50   49.41   47.67   48.49   48.51   48.25   47.83   47.29   46.64   45.88   44.93   43.27   44.51   45.22
        45.48   45.33   44.84   44.01   42.83   41.36   39.96   37.93   36.73   35.57   34.88   35.15   35.31   35.38   35.39
  16    52.70   52.24   51.27   49.71   47.25   46.53   46.02   45.52   45.02   44.52   44.06   43.86   45.69   46.73   47.29
        47.47   47.31   46.84   46.10   45.08   43.86   42.52   41.00   39.62   38.23   36.69   34.41   34.54   34.57   34.51
  17    54.85   54.47   53.72   52.62   51.29   50.44   49.82   49.29   48.83   48.43   48.17   48.22   48.87   49.43   49.74
        49.79   49.58   49.12   48.43   47.54   46.46   45.25   43.91   42.52   41.01   39.23   36.91   33.83   33.85   33.55
  18    57.36   57.07   56.50   55.72   54.85   54.11   53.50   52.99   52.55   52.20   51.97   51.95   52.15   52.35   52.44
        52.35   52.08   51.62   50.97   50.15   49.18   48.08   46.86   45.53   44.04   42.29   40.14   37.35   33.43   32.28
  19    60.14   59.92   59.49   58.91   58.26   57.64   57.08   56.59   56.16   55.82   55.57   55.43   55.40   55.38   55.29
        55.09   54.76   54.28   53.66   52.91   52.02   51.02   49.90   48.67   47.31   45.76   43.98   41.98   39.95   38.98
  20    63.13   62.95   62.61   62.15   61.62   61.09   60.58   60.11   59.68   59.32   59.03   58.80   58.62   58.45   58.24
        57.95   57.57   57.08   56.48   55.77   54.96   54.05   53.05   51.95   50.75   49.44   48.03   46.61   45.38   44.71
  21    66.29   66.13   65.84   65.44   64.98   64.50   64.02   63.56   63.13   62.75   62.40   62.10   61.83   61.55   61.25
        60.90   60.47   59.98   59.39   58.73   57.99   57.16   56.27   55.30   54.27   53.19   52.09   51.06   50.22   49.75
  22    69.59   69.44   69.15   68.78   68.35   67.89   67.42   66.96   66.52   66.11   65.73   65.36   65.01   64.66   64.30
        63.89   63.44   62.94   62.38   61.75   61.07   60.34   59.55   58.71   57.84   56.95   56.08   55.28   54.66   54.32
  23    73.04   72.85   72.55   72.16   71.73   71.27   70.80   70.33   69.88   69.44   69.01   68.60   68.19   67.78   67.36
        66.92   66.45   65.94   65.40   64.82   64.20   63.55   62.86   62.14   61.41   60.67   59.96   59.32   58.82   58.53
  24    76.64   76.38   76.00   75.57   75.11   74.64   74.16   73.68   73.20   72.73   72.27   71.81   71.35   70.90   70.43
        69.96   69.47   68.97   68.45   67.91   67.35   66.77   66.18   65.58   64.96   64.35   63.76   63.21   62.74   62.43
  25    80.50   80.00   79.50   79.00   78.50   78.00   77.50   77.00   76.50   76.00   75.50   75.00   74.50   74.00   73.50
        73.00   72.50   72.00   71.50   71.00   70.50   70.00   69.50   69.00   68.50   68.00   67.50   67.00   66.50   66.00
1
  VOLUMETRIC BUDGET FOR ENTIRE MODEL AT END OF TIME STEP    1, STRESS PERIOD   6
  ------------------------------------------------------------------------------

     CUMULATIVE VOLUMES      L**3       RATES FOR THIS TIME STEP      L**3/T
     ------------------                 ------------------------

           IN:                                      IN:
           ---                                      ---
             STORAGE =    21090927.6172               STORAGE =         240.4255
       CONSTANT HEAD =   644878408.9970         CONSTANT HEAD =     1173947.7438
              DRAINS =           0.0000                DRAINS =           0.0000
            RECHARGE =    15097200.0000              RECHARGE =       55200.0000
       MANAGED WELLS =           0.0000         MANAGED WELLS =           0.0000

            TOTAL IN =   681066536.6142              TOTAL IN =     1229388.1693

          OUT:                                     OUT:
          ----                                     ----
             STORAGE =      484190.0227               STORAGE =        2487.9559
       CONSTANT HEAD =           0.0000         CONSTANT HEAD =           0.0000
              DRAINS =   658682470.8087                DRAINS =     1181900.1803
            RECHARGE =           0.0000              RECHARGE =           0.0000
       MANAGED WELLS =    21900000.0000         MANAGED WELLS =       45000.0000

           TOTAL OUT =   681066660.8313             TOTAL OUT =     1229388.1362

            IN - OUT =        -124.2171              IN - OUT =       3.3055E-02

 PERCENT DISCREPANCY =           0.00     PERCENT DISCREPANCY =           0.00






         TIME SUMMARY AT END OF TIME STEP    1 IN STRESS PERIOD    6
                    SECONDS     MINUTES      HOURS       DAYS        YEARS
                    -----------------------------------------------------------
   TIME STEP LENGTH 7.86240E+06 1.31040E+05  2184.0      91.000     0.24914    
 STRESS PERIOD TIME 7.86240E+06 1.31040E+05  2184.0      91.000     0.24914    
         TOTAL TIME 4.73472E+07 7.89120E+05  13152.      548.00      1.5003    
1
1
                            STRESS PERIOD NO.    7, LENGTH =   91.00000    
                            -----------------------------------------------

                              NUMBER OF TIME STEPS =     1

                               MULTIPLIER FOR DELT =     1.500

                            INITIAL TIME STEP SIZE =   91.00000    

 REUSING NON-PARAMETER DRAINS FROM LAST STRESS PERIOD

     40 DRAINS

                 RECHARGE =   0.00000    

Flows at Managed Wells for Stress Period    7

 Well no.  Layer   Row   Col   Stress Rate
 ----------------------------------------------------
        1      1    12    11   -15485.97923628778    
        2      1    16    17   -44514.02076371221    
        3      1    14    25    0.000000000000000    
 ----------------------------------------------------
                      Total:   -60000.00000000000    
 
 SOLVING FOR HEAD 


     4 CALLS TO PCG ROUTINE FOR TIME STEP   1 IN STRESS PERIOD    7
    16 TOTAL ITERATIONS

 OUTPUT CONTROL FOR STRESS PERIOD    7   TIME STEP    1
    PRINT BUDGET
    PRINT HEAD FOR ALL LAYERS
    SAVE BUDGET

           DRAINS   PERIOD    7   STEP   1
 DRAIN      1   LAYER   1   ROW    13   COL     1   RATE    -27388.0    
 DRAIN      2   LAYER   1   ROW    13   COL     2   RATE    -37365.2    
 DRAIN      3   LAYER   1   ROW    14   COL     3   RATE    -32917.5    
 DRAIN      4   LAYER   1   ROW    15   COL     4   RATE    -32290.5    
 DRAIN      5   LAYER   1   ROW    16   COL     5   RATE    -34136.4    
 DRAIN      6   LAYER   1   ROW    16   COL     6   RATE    -29737.3    
 DRAIN      7   LAYER   1   ROW    16   COL     7   RATE    -29439.8    
 DRAIN      8   LAYER   1   ROW    16   COL     8   RATE    -29474.2    
 DRAIN      9   LAYER   1   ROW    16   COL     9   RATE    -29365.4    
 DRAIN     10   LAYER   1   ROW    16   COL    10   RATE    -29167.2    
 DRAIN     11   LAYER   1   ROW    16   COL    11   RATE    -29491.8    
 DRAIN     12   LAYER   1   ROW    16   COL    12   RATE    -34353.0    
 DRAIN     13   LAYER   1   ROW    15   COL    13   RATE    -31574.9    
 DRAIN     14   LAYER   1   ROW    14   COL    14   RATE    -31427.2    
 DRAIN     15   LAYER   1   ROW    13   COL    15   RATE    -34164.4    
 DRAIN     16   LAYER   1   ROW    12   COL    16   RATE    -42031.5    
 DRAIN     17   LAYER   1   ROW    12   COL    17   RATE    -32715.2    
 DRAIN     18   LAYER   1   ROW    12   COL    18   RATE    -31582.4    
 DRAIN     19   LAYER   1   ROW    12   COL    19   RATE    -36744.1    
 DRAIN     20   LAYER   1   ROW    13   COL    20   RATE    -26997.7    
 DRAIN     21   LAYER   1   ROW    14   COL    21   RATE    -22763.3    
 DRAIN     22   LAYER   1   ROW    14   COL    22   RATE    -9628.16    
 DRAIN     23   LAYER   1   ROW     9   COL    30   RATE    -26864.9    
 DRAIN     24   LAYER   1   ROW     9   COL    29   RATE    -29542.6    
 DRAIN     25   LAYER   1   ROW     9   COL    28   RATE    -33970.5    
 DRAIN     26   LAYER   1   ROW     9   COL    27   RATE    -48427.5    
 DRAIN     27   LAYER   1   ROW    10   COL    26   RATE    -34330.2    
 DRAIN     28   LAYER   1   ROW    11   COL    25   RATE    -26023.9    
 DRAIN     29   LAYER   1   ROW    12   COL    24   RATE    -19665.9    
 DRAIN     30   LAYER   1   ROW    13   COL    23   RATE    -14954.6    
 DRAIN     31   LAYER   1   ROW    14   COL    22   RATE    -4814.08    
 DRAIN     32   LAYER   1   ROW    14   COL    22   RATE    -4814.08    
 DRAIN     33   LAYER   1   ROW    15   COL    23   RATE    -17897.5    
 DRAIN     34   LAYER   1   ROW    15   COL    24   RATE    -16709.0    
 DRAIN     35   LAYER   1   ROW    15   COL    25   RATE    -17386.2    
 DRAIN     36   LAYER   1   ROW    15   COL    26   RATE    -20720.1    
 DRAIN     37   LAYER   1   ROW    16   COL    27   RATE    -28523.7    
 DRAIN     38   LAYER   1   ROW    17   COL    28   RATE    -36242.8    
 DRAIN     39   LAYER   1   ROW    18   COL    29   RATE    -47991.7    
 DRAIN     40   LAYER   1   ROW    18   COL    30   RATE    -45214.9    
1
              HEAD IN LAYER   1 AT END OF TIME STEP   1 IN STRESS PERIOD    7
  ---------------------------------------------------------------------------

           1       2       3       4       5       6       7       8       9      10      11      12      13      14      15
          16      17      18      19      20      21      22      23      24      25      26      27      28      29      30
 ...........................................................................................................................
   1   100.50  100.00   99.50   99.00   98.50   98.00   97.50   97.00   96.50   96.00   95.50   95.00   94.50   94.00   93.50
        93.00   92.50   92.00   91.50   91.00   90.50   90.00   89.50   89.00   88.50   88.00   87.50   87.00   86.50   86.00
   2    95.75   95.50   95.15   94.75   94.31   93.86   93.38   92.90   92.39   91.88   91.35   90.81   90.26   89.71   89.15
        88.59   88.03   87.47   86.90   86.33   85.75   85.16   84.58   83.99   83.40   82.84   82.30   81.81   81.40   81.12
   3    91.26   91.10   90.85   90.52   90.15   89.73   89.28   88.81   88.30   87.76   87.20   86.63   86.03   85.42   84.81
        84.19   83.56   82.93   82.30   81.66   81.00   80.33   79.65   78.97   78.29   77.64   77.05   76.55   76.17   75.95
   4    86.91   86.81   86.61   86.34   86.02   85.64   85.22   84.74   84.23   83.67   83.08   82.46   81.81   81.15   80.47
        79.78   79.10   78.41   77.71   77.00   76.27   75.52   74.73   73.94   73.14   72.39   71.71   71.16   70.77   70.57
   5    82.68   82.60   82.45   82.23   81.94   81.60   81.19   80.72   80.20   79.62   78.99   78.32   77.61   76.88   76.13
        75.38   74.63   73.88   73.13   72.36   71.57   70.72   69.83   68.90   67.96   67.05   66.25   65.62   65.19   64.98
   6    78.52   78.46   78.35   78.17   77.93   77.61   77.22   76.76   76.22   75.61   74.94   74.21   73.43   72.62   71.80
        70.98   70.16   69.36   68.57   67.76   66.90   65.98   64.97   63.88   62.73   61.61   60.61   59.87   59.40   59.18
   7    74.42   74.38   74.31   74.18   73.98   73.70   73.33   72.87   72.31   71.67   70.94   70.14   69.29   68.39   67.47
        66.56   65.68   64.84   64.02   63.20   62.31   61.31   60.18   58.90   57.50   56.04   54.71   53.84   53.36   53.16
   8    70.35   70.34   70.32   70.25   70.11   69.88   69.54   69.07   68.49   67.80   67.01   66.13   65.18   64.17   63.12
        62.10   61.16   60.29   59.49   58.69   57.82   56.79   55.55   54.06   52.31   50.34   48.35   47.42   47.05   46.93
   9    66.28   66.32   66.38   66.40   66.34   66.17   65.85   65.39   64.78   64.03   63.16   62.20   61.14   59.97   58.76
        57.58   56.55   55.68   54.95   54.27   53.48   52.47   51.16   49.48   47.36   44.64   40.92   40.45   40.48   40.59
  10    62.18   62.28   62.46   62.63   62.68   62.59   62.32   61.86   61.21   60.38   59.40   58.37   57.19   55.83   54.35
        52.90   51.77   50.94   50.36   49.94   49.36   48.46   47.13   45.33   42.99   39.97   39.93   39.77   39.73   39.74
  11    57.96   58.16   58.57   58.96   59.18   59.19   58.97   58.52   57.82   56.87   55.70   54.69   53.42   51.81   49.91
        47.90   46.69   45.95   45.60   45.77   45.58   44.86   43.58   41.74   39.30   39.17   39.07   38.97   38.92   38.91
  12    53.55   53.82   54.71   55.45   55.89   56.01   55.85   55.41   54.69   53.59   51.81   51.29   49.98   48.09   45.58
        42.10   41.14   40.58   40.34   41.94   42.32   41.82   40.59   38.73   38.52   38.33   38.21   38.12   38.08   38.06
  13    48.87   48.87   50.99   52.23   52.90   53.13   53.00   52.60   51.93   50.99   49.78   48.66   47.11   45.00   42.21
        42.20   41.71   41.21   40.57   39.35   39.95   39.50   38.25   38.02   37.70   37.44   37.30   37.24   37.20   37.19
  14    49.67   49.27   48.15   49.59   50.37   50.58   50.44   50.05   49.44   48.64   47.65   46.47   44.81   42.57   42.89
        42.76   42.32   41.96   41.38   40.33   38.64   37.96   37.87   37.39   36.84   36.41   36.33   36.32   36.31   36.31
  15    50.86   50.38   49.32   47.61   48.40   48.40   48.13   47.70   47.15   46.49   45.72   44.74   43.08   43.87   44.03
        43.63   42.83   42.91   42.67   41.96   40.86   39.70   37.89   36.84   35.87   35.04   35.30   35.40   35.43   35.41
  16    52.53   52.09   51.14   49.61   47.21   46.49   45.97   45.47   44.97   44.46   43.97   43.72   45.20   45.81   45.74
        44.87   42.46   44.19   44.42   43.97   43.13   42.06   40.75   39.53   38.24   36.71   34.43   34.55   34.58   34.51
  17    54.66   54.29   53.55   52.46   51.16   50.32   49.69   49.15   48.66   48.23   47.90   47.82   48.21   48.40   48.23
        47.66   46.82   46.94   46.83   46.38   45.64   44.67   43.53   42.28   40.87   39.14   36.85   33.81   33.83   33.53
  18    57.14   56.86   56.30   55.53   54.67   53.93   53.31   52.77   52.30   51.90   51.59   51.43   51.42   51.36   51.12
        50.70   50.21   49.93   49.59   49.07   48.35   47.46   46.40   45.20   43.80   42.12   40.01   37.26   33.40   32.26
  19    59.92   59.69   59.27   58.69   58.05   57.42   56.85   56.33   55.87   55.47   55.14   54.89   54.69   54.48   54.18
        53.80   53.37   52.97   52.51   51.95   51.25   50.41   49.43   48.31   47.02   45.53   43.80   41.84   39.84   38.89
  20    62.91   62.73   62.39   61.93   61.40   60.86   60.33   59.84   59.38   58.97   58.60   58.28   57.98   57.68   57.33
        56.94   56.51   56.05   55.55   54.96   54.28   53.49   52.59   51.58   50.45   49.19   47.83   46.44   45.23   44.57
  21    66.08   65.93   65.63   65.23   64.77   64.27   63.78   63.30   62.84   62.41   62.02   61.64   61.28   60.92   60.53
        60.11   59.66   59.18   58.65   58.07   57.41   56.68   55.86   54.96   53.99   52.95   51.89   50.88   50.05   49.60
  22    69.41   69.26   68.97   68.60   68.16   67.69   67.21   66.74   66.28   65.83   65.40   64.99   64.59   64.18   63.75
        63.31   62.84   62.35   61.82   61.25   60.62   59.95   59.21   58.43   57.60   56.74   55.89   55.12   54.51   54.18
  23    72.90   72.72   72.41   72.02   71.58   71.12   70.64   70.16   69.69   69.23   68.78   68.33   67.89   67.44   66.99
        66.53   66.05   65.55   65.02   64.47   63.89   63.27   62.62   61.93   61.23   60.51   59.82   59.19   58.70   58.41
  24    76.57   76.30   75.93   75.50   75.03   74.56   74.07   73.58   73.10   72.62   72.14   71.67   71.19   70.72   70.24
        69.76   69.27   68.77   68.26   67.73   67.19   66.63   66.05   65.46   64.86   64.26   63.68   63.14   62.67   62.36
  25    80.50   80.00   79.50   79.00   78.50   78.00   77.50   77.00   76.50   76.00   75.50   75.00   74.50   74.00   73.50
        73.00   72.50   72.00   71.50   71.00   70.50   70.00   69.50   69.00   68.50   68.00   67.50   67.00   66.50   66.00
1
  VOLUMETRIC BUDGET FOR ENTIRE MODEL AT END OF TIME STEP    1, STRESS PERIOD   7
  ------------------------------------------------------------------------------

     CUMULATIVE VOLUMES      L**3       RATES FOR THIS TIME STEP      L**3/T
     ------------------                 ------------------------

           IN:                                      IN:
           ---                                      ---
             STORAGE =    21509052.8074               STORAGE =        4594.7823
       CONSTANT HEAD =   754484348.9779         CONSTANT HEAD =     1204460.8789
              DRAINS =           0.0000                DRAINS =           0.0000
            RECHARGE =    15097200.0000              RECHARGE =           0.0000
       MANAGED WELLS =           0.0000         MANAGED WELLS =           0.0000

            TOTAL IN =   791090601.7853              TOTAL IN =     1209055.6612

          OUT:                                     OUT:
          ----                                     ----
             STORAGE =      502956.4739               STORAGE =         206.2247
       CONSTANT HEAD =           0.0000         CONSTANT HEAD =           0.0000
              DRAINS =   763227773.9037                DRAINS =     1148849.4846
            RECHARGE =           0.0000              RECHARGE =           0.0000
       MANAGED WELLS =    27360000.0000         MANAGED WELLS =       60000.0000

           TOTAL OUT =   791090730.3776             TOTAL OUT =     1209055.7093

            IN - OUT =        -128.5923              IN - OUT =      -4.8078E-02

 PERCENT DISCREPANCY =           0.00     PERCENT DISCREPANCY =           0.00






         TIME SUMMARY AT END OF TIME STEP    1 IN STRESS PERIOD    7
                    SECONDS     MINUTES      HOURS       DAYS        YEARS
                    -----------------------------------------------------------
   TIME STEP LENGTH 7.86240E+06 1.31040E+05  2184.0      91.000     0.24914    
 STRESS PERIOD TIME 7.86240E+06 1.31040E+05  2184.0      91.000     0.24914    
         TOTAL TIME 5.52096E+07 9.20160E+05  15336.      639.00      1.7495    
1
1
                            STRESS PERIOD NO.    8, LENGTH =   91.00000    
                            -----------------------------------------------

                              NUMBER OF TIME STEPS =     1

                               MULTIPLIER FOR DELT =     1.500

                            INITIAL TIME STEP SIZE =   91.00000    

 REUSING NON-PARAMETER DRAINS FROM LAST STRESS PERIOD

     40 DRAINS

                 RECHARGE =  1.000000E-03

Flows at Managed Wells for Stress Period    8

 Well no.  Layer   Row   Col   Stress Rate
 ----------------------------------------------------
        1      1    12    11   -15485.97923628778    
        2      1    16    17   -14514.02076371222    
 ----------------------------------------------------
                      Total:   -30000.00000000000    
 
 SOLVING FOR HEAD 


     4 CALLS TO PCG ROUTINE FOR TIME STEP   1 IN STRESS PERIOD    8
    15 TOTAL ITERATIONS

 OUTPUT CONTROL FOR STRESS PERIOD    8   TIME STEP    1
    PRINT BUDGET
    PRINT HEAD FOR ALL LAYERS
    SAVE BUDGET

           DRAINS   PERIOD    8   STEP   1
 DRAIN      1   LAYER   1   ROW    13   COL     1   RATE    -27793.9    
 DRAIN      2   LAYER   1   ROW    13   COL     2   RATE    -37853.1    
 DRAIN      3   LAYER   1   ROW    14   COL     3   RATE    -33407.2    
 DRAIN      4   LAYER   1   ROW    15   COL     4   RATE    -32774.7    
 DRAIN      5   LAYER   1   ROW    16   COL     5   RATE    -34597.1    
 DRAIN      6   LAYER   1   ROW    16   COL     6   RATE    -30156.4    
 DRAIN      7   LAYER   1   ROW    16   COL     7   RATE    -29881.7    
 DRAIN      8   LAYER   1   ROW    16   COL     8   RATE    -29959.3    
 DRAIN      9   LAYER   1   ROW    16   COL     9   RATE    -29918.4    
 DRAIN     10   LAYER   1   ROW    16   COL    10   RATE    -29837.8    
 DRAIN     11   LAYER   1   ROW    16   COL    11   RATE    -30413.7    
 DRAIN     12   LAYER   1   ROW    16   COL    12   RATE    -36084.2    
 DRAIN     13   LAYER   1   ROW    15   COL    13   RATE    -33928.3    
 DRAIN     14   LAYER   1   ROW    14   COL    14   RATE    -34211.2    
 DRAIN     15   LAYER   1   ROW    13   COL    15   RATE    -36786.0    
 DRAIN     16   LAYER   1   ROW    12   COL    16   RATE    -43742.4    
 DRAIN     17   LAYER   1   ROW    12   COL    17   RATE    -34509.6    
 DRAIN     18   LAYER   1   ROW    12   COL    18   RATE    -33253.5    
 DRAIN     19   LAYER   1   ROW    12   COL    19   RATE    -38171.9    
 DRAIN     20   LAYER   1   ROW    13   COL    20   RATE    -29008.9    
 DRAIN     21   LAYER   1   ROW    14   COL    21   RATE    -24779.4    
 DRAIN     22   LAYER   1   ROW    14   COL    22   RATE    -10132.1    
 DRAIN     23   LAYER   1   ROW     9   COL    30   RATE    -27162.9    
 DRAIN     24   LAYER   1   ROW     9   COL    29   RATE    -29842.9    
 DRAIN     25   LAYER   1   ROW     9   COL    28   RATE    -34282.9    
 DRAIN     26   LAYER   1   ROW     9   COL    27   RATE    -48812.3    
 DRAIN     27   LAYER   1   ROW    10   COL    26   RATE    -34749.3    
 DRAIN     28   LAYER   1   ROW    11   COL    25   RATE    -26458.3    
 DRAIN     29   LAYER   1   ROW    12   COL    24   RATE    -20111.6    
 DRAIN     30   LAYER   1   ROW    13   COL    23   RATE    -15461.7    
 DRAIN     31   LAYER   1   ROW    14   COL    22   RATE    -5066.03    
 DRAIN     32   LAYER   1   ROW    14   COL    22   RATE    -5066.03    
 DRAIN     33   LAYER   1   ROW    15   COL    23   RATE    -19050.7    
 DRAIN     34   LAYER   1   ROW    15   COL    24   RATE    -17359.1    
 DRAIN     35   LAYER   1   ROW    15   COL    25   RATE    -17882.6    
 DRAIN     36   LAYER   1   ROW    15   COL    26   RATE    -21178.2    
 DRAIN     37   LAYER   1   ROW    16   COL    27   RATE    -29063.7    
 DRAIN     38   LAYER   1   ROW    17   COL    28   RATE    -36760.9    
 DRAIN     39   LAYER   1   ROW    18   COL    29   RATE    -48454.0    
 DRAIN     40   LAYER   1   ROW    18   COL    30   RATE    -45572.1    
1
              HEAD IN LAYER   1 AT END OF TIME STEP   1 IN STRESS PERIOD    8
  ---------------------------------------------------------------------------

           1       2       3       4       5       6       7       8       9      10      11      12      13      14      15
          16      17      18      19      20      21      22      23      24      25      26      27      28      29      30
 ...........................................................................................................................
   1   100.50  100.00   99.50   99.00   98.50   98.00   97.50   97.00   96.50   96.00   95.50   95.00   94.50   94.00   93.50
        93.00   92.50   92.00   91.50   91.00   90.50   90.00   89.50   89.00   88.50   88.00   87.50   87.00   86.50   86.00
   2    95.79   95.54   95.19   94.79   94.35   93.90   93.43   92.94   92.44   91.92   91.39   90.85   90.31   89.75   89.19
        88.63   88.07   87.51   86.94   86.36   85.79   85.20   84.61   84.02   83.44   82.87   82.33   81.84   81.43   81.15
   3    91.33   91.18   90.92   90.60   90.22   89.81   89.36   88.88   88.38   87.84   87.28   86.71   86.11   85.50   84.88
        84.26   83.64   83.01   82.37   81.73   81.07   80.40   79.72   79.03   78.35   77.70   77.10   76.60   76.22   76.00
   4    87.02   86.91   86.72   86.45   86.12   85.75   85.32   84.85   84.34   83.78   83.19   82.57   81.92   81.25   80.57
        79.89   79.20   78.51   77.81   77.10   76.36   75.60   74.82   74.02   73.22   72.46   71.78   71.23   70.84   70.64
   5    82.80   82.72   82.57   82.35   82.07   81.73   81.32   80.85   80.33   79.75   79.12   78.45   77.74   77.01   76.26
        75.50   74.75   74.00   73.25   72.48   71.67   70.83   69.93   68.99   68.05   67.13   66.33   65.69   65.27   65.05
   6    78.66   78.60   78.49   78.31   78.07   77.76   77.37   76.91   76.37   75.76   75.09   74.35   73.58   72.77   71.94
        71.11   70.30   69.50   68.70   67.88   67.02   66.09   65.08   63.98   62.83   61.69   60.69   59.94   59.47   59.25
   7    74.56   74.53   74.46   74.33   74.13   73.86   73.49   73.03   72.47   71.83   71.10   70.30   69.44   68.54   67.62
        66.71   65.82   64.98   64.16   63.33   62.43   61.43   60.29   59.01   57.59   56.12   54.78   53.90   53.42   53.22
   8    70.49   70.49   70.47   70.41   70.27   70.04   69.70   69.24   68.66   67.97   67.18   66.30   65.35   64.33   63.28
        62.26   61.30   60.43   59.63   58.82   57.94   56.90   55.65   54.16   52.39   50.40   48.40   47.47   47.09   46.98
   9    66.42   66.46   66.52   66.55   66.50   66.33   66.02   65.56   64.95   64.20   63.33   62.37   61.30   60.14   58.91
        57.73   56.69   55.82   55.08   54.39   53.60   52.58   51.26   49.56   47.42   44.69   40.94   40.46   40.49   40.61
  10    62.30   62.41   62.60   62.77   62.83   62.74   62.48   62.02   61.38   60.55   59.57   58.54   57.35   55.99   54.50
        53.04   51.90   51.07   50.48   50.06   49.48   48.56   47.22   45.40   43.04   39.99   39.96   39.81   39.77   39.78
  11    58.06   58.27   58.69   59.08   59.31   59.33   59.12   58.67   57.98   57.03   55.86   54.86   53.58   51.97   50.05
        48.02   46.81   46.06   45.71   45.87   45.68   44.95   43.65   41.78   39.32   39.20   39.11   39.02   38.97   38.96
  12    53.62   53.89   54.80   55.55   56.00   56.14   55.98   55.55   54.83   53.74   51.97   51.44   50.13   48.24   45.70
        42.19   41.23   40.66   40.41   42.04   42.42   41.89   40.65   38.76   38.55   38.38   38.26   38.18   38.14   38.12
  13    48.89   48.89   51.04   52.31   53.00   53.23   53.12   52.72   52.05   51.12   49.91   48.80   47.25   45.14   42.34
        42.54   42.14   41.60   40.85   39.45   40.04   39.56   38.27   38.05   37.75   37.49   37.36   37.30   37.27   37.26
  14    49.71   49.30   48.17   49.64   50.44   50.66   50.53   50.14   49.54   48.75   47.77   46.59   44.94   42.71   43.33
        43.47   43.20   42.72   41.94   40.66   38.74   38.01   37.92   37.43   36.88   36.46   36.39   36.38   36.38   36.38
  15    50.92   50.44   49.37   47.64   48.44   48.45   48.19   47.76   47.22   46.57   45.80   44.85   43.20   44.27   44.79
        44.82   44.46   44.15   43.53   42.52   41.19   39.88   37.95   36.87   35.89   35.06   35.34   35.45   35.49   35.48
  16    52.61   52.16   51.20   49.65   47.23   46.51   45.99   45.50   45.00   44.49   44.02   43.80   45.50   46.39   46.73
        46.55   45.65   45.91   45.49   44.68   43.60   42.37   40.94   39.66   38.33   36.77   34.45   34.60   34.63   34.56
  17    54.75   54.38   53.63   52.54   51.23   50.38   49.75   49.22   48.75   48.34   48.06   48.05   48.61   49.04   49.18
        49.02   48.60   48.34   47.85   47.11   46.15   45.04   43.79   42.47   41.00   39.24   36.91   33.84   33.87   33.57
  18    57.24   56.96   56.40   55.62   54.76   54.02   53.41   52.88   52.43   52.06   51.81   51.73   51.85   51.96   51.93
        51.73   51.39   50.99   50.45   49.74   48.87   47.85   46.70   45.42   43.97   42.25   40.10   37.32   33.42   32.28
  19    60.02   59.80   59.38   58.80   58.15   57.53   56.97   56.46   56.02   55.66   55.38   55.20   55.11   55.02   54.86
        54.59   54.23   53.78   53.22   52.53   51.72   50.78   49.72   48.54   47.21   45.68   43.92   41.92   39.90   38.95
  20    63.02   62.84   62.50   62.04   61.51   60.97   60.45   59.97   59.54   59.16   58.84   58.57   58.35   58.13   57.87
        57.55   57.15   56.67   56.11   55.45   54.69   53.83   52.86   51.80   50.63   49.34   47.95   46.54   45.31   44.65
  21    66.18   66.03   65.73   65.33   64.87   64.38   63.90   63.43   62.99   62.59   62.23   61.90   61.59   61.29   60.95
        60.57   60.14   59.65   59.09   58.46   57.75   56.97   56.10   55.17   54.16   53.09   52.01   50.98   50.15   49.69
  22    69.50   69.34   69.06   68.69   68.25   67.79   67.32   66.85   66.41   65.98   65.58   65.20   64.83   64.46   64.07
        63.65   63.19   62.69   62.14   61.54   60.89   60.17   59.41   58.59   57.74   56.86   56.00   55.21   54.60   54.25
  23    72.97   72.78   72.48   72.09   71.65   71.19   70.72   70.25   69.79   69.34   68.90   68.48   68.06   67.64   67.20
        66.75   66.28   65.78   65.24   64.67   64.07   63.43   62.76   62.05   61.33   60.60   59.90   59.26   58.76   58.47
  24    76.60   76.34   75.96   75.53   75.07   74.60   74.11   73.63   73.15   72.68   72.21   71.74   71.28   70.82   70.35
        69.87   69.39   68.88   68.37   67.83   67.28   66.71   66.12   65.53   64.92   64.31   63.72   63.18   62.71   62.40
  25    80.50   80.00   79.50   79.00   78.50   78.00   77.50   77.00   76.50   76.00   75.50   75.00   74.50   74.00   73.50
        73.00   72.50   72.00   71.50   71.00   70.50   70.00   69.50   69.00   68.50   68.00   67.50   67.00   66.50   66.00
1
  VOLUMETRIC BUDGET FOR ENTIRE MODEL AT END OF TIME STEP    1, STRESS PERIOD   8
  ------------------------------------------------------------------------------

     CUMULATIVE VOLUMES      L**3       RATES FOR THIS TIME STEP      L**3/T
     ------------------                 ------------------------

           IN:                                      IN:
           ---                                      ---
             STORAGE =    21509052.8074               STORAGE =           0.0000
       CONSTANT HEAD =   862645636.7260         CONSTANT HEAD =     1188585.5796
              DRAINS =           0.0000                DRAINS =           0.0000
            RECHARGE =    17608800.0000              RECHARGE =       27600.0000
       MANAGED WELLS =           0.0000         MANAGED WELLS =           0.0000

            TOTAL IN =   901763489.5334              TOTAL IN =     1216185.5796

          OUT:                                     OUT:
          ----                                     ----
             STORAGE =      744074.2545               STORAGE =        2649.6459
       CONSTANT HEAD =           0.0000         CONSTANT HEAD =           0.0000
              DRAINS =   870929535.2464                DRAINS =     1183535.8389
            RECHARGE =           0.0000              RECHARGE =           0.0000
       MANAGED WELLS =    30090000.0000         MANAGED WELLS =       30000.0000

           TOTAL OUT =   901763609.5009             TOTAL OUT =     1216185.4849

            IN - OUT =        -119.9674              IN - OUT =       9.4778E-02

 PERCENT DISCREPANCY =           0.00     PERCENT DISCREPANCY =           0.00






         TIME SUMMARY AT END OF TIME STEP    1 IN STRESS PERIOD    8
                    SECONDS     MINUTES      HOURS       DAYS        YEARS
                    -----------------------------------------------------------
   TIME STEP LENGTH 7.86240E+06 1.31040E+05  2184.0      91.000     0.24914    
 STRESS PERIOD TIME 7.86240E+06 1.31040E+05  2184.0      91.000     0.24914    
         TOTAL TIME 6.30720E+07 1.05120E+06  17520.      730.00      1.9986    
1
1
                            STRESS PERIOD NO.    9, LENGTH =   92.00000    
                            -----------------------------------------------

                              NUMBER OF TIME STEPS =     1

                               MULTIPLIER FOR DELT =     1.500

                            INITIAL TIME STEP SIZE =   92.00000    

 REUSING NON-PARAMETER DRAINS FROM LAST STRESS PERIOD

     40 DRAINS

                 RECHARGE =  5.000000E-04

Flows at Managed Wells for Stress Period    9

 Well no.  Layer   Row   Col   Stress Rate
 ----------------------------------------------------
        1      1    12    11   -15485.97923628778    
        2      1    16    17   -14514.02076371222    
 ----------------------------------------------------
                      Total:   -30000.00000000000    
 
 SOLVING FOR HEAD 


     3 CALLS TO PCG ROUTINE FOR TIME STEP   1 IN STRESS PERIOD    9
    11 TOTAL ITERATIONS

 OUTPUT CONTROL FOR STRESS PERIOD    9   TIME STEP    1
    PRINT BUDGET
    PRINT HEAD FOR ALL LAYERS
    SAVE BUDGET

           DRAINS   PERIOD    9   STEP   1
 DRAIN      1   LAYER   1   ROW    13   COL     1   RATE    -27599.5    
 DRAIN      2   LAYER   1   ROW    13   COL     2   RATE    -37620.7    
 DRAIN      3   LAYER   1   ROW    14   COL     3   RATE    -33178.2    
 DRAIN      4   LAYER   1   ROW    15   COL     4   RATE    -32554.2    
 DRAIN      5   LAYER   1   ROW    16   COL     5   RATE    -34398.8    
 DRAIN      6   LAYER   1   ROW    16   COL     6   RATE    -29985.6    
 DRAIN      7   LAYER   1   ROW    16   COL     7   RATE    -29714.7    
 DRAIN      8   LAYER   1   ROW    16   COL     8   RATE    -29794.7    
 DRAIN      9   LAYER   1   ROW    16   COL     9   RATE    -29757.9    
 DRAIN     10   LAYER   1   ROW    16   COL    10   RATE    -29683.8    
 DRAIN     11   LAYER   1   ROW    16   COL    11   RATE    -30268.1    
 DRAIN     12   LAYER   1   ROW    16   COL    12   RATE    -35938.3    
 DRAIN     13   LAYER   1   ROW    15   COL    13   RATE    -33771.4    
 DRAIN     14   LAYER   1   ROW    14   COL    14   RATE    -34051.3    
 DRAIN     15   LAYER   1   ROW    13   COL    15   RATE    -36619.4    
 DRAIN     16   LAYER   1   ROW    12   COL    16   RATE    -43558.9    
 DRAIN     17   LAYER   1   ROW    12   COL    17   RATE    -34370.8    
 DRAIN     18   LAYER   1   ROW    12   COL    18   RATE    -33120.4    
 DRAIN     19   LAYER   1   ROW    12   COL    19   RATE    -38015.8    
 DRAIN     20   LAYER   1   ROW    13   COL    20   RATE    -28883.0    
 DRAIN     21   LAYER   1   ROW    14   COL    21   RATE    -24676.0    
 DRAIN     22   LAYER   1   ROW    14   COL    22   RATE    -10083.6    
 DRAIN     23   LAYER   1   ROW     9   COL    30   RATE    -27024.8    
 DRAIN     24   LAYER   1   ROW     9   COL    29   RATE    -29704.1    
 DRAIN     25   LAYER   1   ROW     9   COL    28   RATE    -34139.3    
 DRAIN     26   LAYER   1   ROW     9   COL    27   RATE    -48637.3    
 DRAIN     27   LAYER   1   ROW    10   COL    26   RATE    -34568.6    
 DRAIN     28   LAYER   1   ROW    11   COL    25   RATE    -26285.3    
 DRAIN     29   LAYER   1   ROW    12   COL    24   RATE    -19958.6    
 DRAIN     30   LAYER   1   ROW    13   COL    23   RATE    -15339.1    
 DRAIN     31   LAYER   1   ROW    14   COL    22   RATE    -5041.81    
 DRAIN     32   LAYER   1   ROW    14   COL    22   RATE    -5041.81    
 DRAIN     33   LAYER   1   ROW    15   COL    23   RATE    -18942.7    
 DRAIN     34   LAYER   1   ROW    15   COL    24   RATE    -17258.9    
 DRAIN     35   LAYER   1   ROW    15   COL    25   RATE    -17775.8    
 DRAIN     36   LAYER   1   ROW    15   COL    26   RATE    -21046.7    
 DRAIN     37   LAYER   1   ROW    16   COL    27   RATE    -28908.0    
 DRAIN     38   LAYER   1   ROW    17   COL    28   RATE    -36600.6    
 DRAIN     39   LAYER   1   ROW    18   COL    29   RATE    -48302.5    
 DRAIN     40   LAYER   1   ROW    18   COL    30   RATE    -45442.5    
1
              HEAD IN LAYER   1 AT END OF TIME STEP   1 IN STRESS PERIOD    9
  ---------------------------------------------------------------------------

           1       2       3       4       5       6       7       8       9      10      11      12      13      14      15
          16      17      18      19      20      21      22      23      24      25      26      27      28      29      30
 ...........................................................................................................................
   1   100.50  100.00   99.50   99.00   98.50   98.00   97.50   97.00   96.50   96.00   95.50   95.00   94.50   94.00   93.50
        93.00   92.50   92.00   91.50   91.00   90.50   90.00   89.50   89.00   88.50   88.00   87.50   87.00   86.50   86.00
   2    95.77   95.52   95.17   94.77   94.33   93.88   93.41   92.92   92.42   91.90   91.37   90.83   90.29   89.73   89.18
        88.61   88.05   87.49   86.92   86.35   85.77   85.18   84.59   84.00   83.42   82.85   82.32   81.83   81.41   81.13
   3    91.30   91.14   90.89   90.56   90.19   89.77   89.33   88.85   88.34   87.81   87.25   86.67   86.07   85.47   84.85
        84.23   83.60   82.97   82.34   81.70   81.04   80.37   79.69   79.00   78.32   77.67   77.08   76.58   76.20   75.98
   4    86.97   86.86   86.66   86.40   86.07   85.70   85.27   84.80   84.29   83.73   83.14   82.52   81.87   81.20   80.53
        79.84   79.15   78.46   77.76   77.05   76.32   75.56   74.78   73.98   73.18   72.42   71.75   71.20   70.81   70.60
   5    82.74   82.66   82.51   82.29   82.01   81.66   81.26   80.79   80.27   79.69   79.06   78.39   77.68   76.95   76.20
        75.45   74.70   73.95   73.20   72.43   71.63   70.78   69.89   68.95   68.00   67.09   66.29   65.66   65.23   65.02
   6    78.59   78.53   78.42   78.24   78.00   77.69   77.30   76.84   76.30   75.69   75.02   74.29   73.52   72.71   71.88
        71.06   70.24   69.44   68.64   67.83   66.97   66.04   65.03   63.93   62.79   61.65   60.65   59.91   59.44   59.22
   7    74.49   74.46   74.38   74.26   74.06   73.78   73.42   72.96   72.40   71.76   71.03   70.23   69.38   68.48   67.56
        66.64   65.77   64.92   64.11   63.27   62.38   61.38   60.25   58.96   57.55   56.08   54.75   53.87   53.39   53.19
   8    70.42   70.42   70.40   70.33   70.20   69.97   69.62   69.16   68.59   67.89   67.11   66.23   65.28   64.26   63.22
        62.20   61.25   60.38   59.57   58.77   57.89   56.86   55.61   54.11   52.36   50.37   48.37   47.44   47.07   46.96
   9    66.35   66.39   66.45   66.48   66.42   66.25   65.94   65.48   64.88   64.13   63.26   62.30   61.24   60.08   58.86
        57.67   56.64   55.77   55.03   54.35   53.55   52.54   51.21   49.53   47.39   44.67   40.93   40.46   40.49   40.60
  10    62.24   62.35   62.53   62.70   62.76   62.67   62.41   61.95   61.31   60.48   59.50   58.48   57.30   55.94   54.45
        53.00   51.86   51.03   50.44   50.02   49.44   48.52   47.18   45.37   43.02   39.98   39.95   39.79   39.75   39.76
  11    58.02   58.21   58.63   59.02   59.25   59.26   59.05   58.60   57.92   56.97   55.80   54.80   53.53   51.92   50.01
        47.99   46.78   46.04   45.68   45.84   45.65   44.92   43.63   41.77   39.31   39.19   39.10   39.00   38.95   38.94
  12    53.59   53.86   54.75   55.50   55.95   56.08   55.92   55.49   54.78   53.68   51.91   51.39   50.09   48.20   45.68
        42.18   41.22   40.66   40.40   42.02   42.39   41.87   40.63   38.75   38.54   38.36   38.24   38.16   38.11   38.10
  13    48.88   48.88   51.02   52.27   52.95   53.18   53.07   52.67   52.01   51.07   49.87   48.76   47.22   45.12   42.33
        42.53   42.13   41.59   40.84   39.44   40.03   39.55   38.27   38.04   37.73   37.47   37.34   37.28   37.24   37.23
  14    49.69   49.29   48.16   49.62   50.41   50.63   50.49   50.10   49.51   48.71   47.73   46.56   44.92   42.70   43.32
        43.46   43.19   42.72   41.93   40.65   38.73   38.01   37.91   37.42   36.87   36.44   36.37   36.36   36.35   36.35
  15    50.89   50.41   49.35   47.63   48.42   48.43   48.16   47.74   47.20   46.55   45.78   44.83   43.19   44.26   44.78
        44.81   44.45   44.15   43.52   42.50   41.17   39.87   37.95   36.86   35.89   35.05   35.33   35.43   35.46   35.45
  16    52.58   52.13   51.18   49.63   47.22   46.50   45.99   45.49   44.99   44.48   44.01   43.80   45.49   46.37   46.72
        46.54   45.64   45.90   45.48   44.66   43.58   42.35   40.93   39.64   38.32   36.76   34.45   34.58   34.61   34.54
  17    54.70   54.34   53.59   52.50   51.20   50.36   49.73   49.20   48.73   48.32   48.04   48.03   48.59   49.02   49.16
        49.00   48.59   48.32   47.83   47.09   46.13   45.02   43.77   42.45   40.98   39.22   36.89   33.83   33.85   33.56
  18    57.20   56.91   56.36   55.59   54.72   53.99   53.38   52.85   52.40   52.03   51.78   51.71   51.83   51.94   51.91
        51.72   51.37   50.97   50.43   49.72   48.84   47.82   46.67   45.39   43.94   42.22   40.08   37.31   33.42   32.27
  19    59.97   59.75   59.33   58.75   58.11   57.49   56.93   56.43   55.99   55.62   55.35   55.17   55.08   54.99   54.83
        54.57   54.21   53.76   53.20   52.51   51.69   50.75   49.69   48.51   47.18   45.65   43.89   41.90   39.88   38.93
  20    62.97   62.79   62.45   61.99   61.47   60.93   60.41   59.94   59.50   59.12   58.80   58.54   58.32   58.11   57.85
        57.52   57.13   56.65   56.09   55.42   54.66   53.80   52.83   51.77   50.60   49.31   47.92   46.52   45.29   44.63
  21    66.14   65.98   65.69   65.29   64.83   64.34   63.86   63.39   62.96   62.56   62.20   61.87   61.56   61.26   60.93
        60.55   60.12   59.63   59.07   58.43   57.72   56.93   56.07   55.13   54.12   53.06   51.98   50.95   50.12   49.66
  22    69.46   69.31   69.02   68.65   68.22   67.75   67.28   66.82   66.37   65.95   65.55   65.17   64.80   64.43   64.04
        63.62   63.17   62.67   62.12   61.52   60.86   60.15   59.38   58.56   57.71   56.83   55.97   55.18   54.57   54.23
  23    72.94   72.75   72.45   72.06   71.63   71.16   70.69   70.22   69.76   69.31   68.88   68.45   68.04   67.62   67.18
        66.73   66.26   65.76   65.22   64.65   64.05   63.41   62.73   62.03   61.31   60.58   59.88   59.24   58.74   58.45
  24    76.59   76.32   75.95   75.52   75.06   74.58   74.10   73.62   73.14   72.66   72.19   71.73   71.27   70.81   70.34
        69.86   69.37   68.87   68.35   67.82   67.27   66.70   66.11   65.51   64.91   64.30   63.71   63.16   62.70   62.38
  25    80.50   80.00   79.50   79.00   78.50   78.00   77.50   77.00   76.50   76.00   75.50   75.00   74.50   74.00   73.50
        73.00   72.50   72.00   71.50   71.00   70.50   70.00   69.50   69.00   68.50   68.00   67.50   67.00   66.50   66.00
1
  VOLUMETRIC BUDGET FOR ENTIRE MODEL AT END OF TIME STEP    1, STRESS PERIOD   9
  ------------------------------------------------------------------------------

     CUMULATIVE VOLUMES      L**3       RATES FOR THIS TIME STEP      L**3/T
     ------------------                 ------------------------

           IN:                                      IN:
           ---                                      ---
             STORAGE =    21555351.0396               STORAGE =         503.2417
       CONSTANT HEAD =   972434729.2477         CONSTANT HEAD =     1193359.7013
              DRAINS =           0.0000                DRAINS =           0.0000
            RECHARGE =    18878400.0000              RECHARGE =       13800.0000
       MANAGED WELLS =           0.0000         MANAGED WELLS =           0.0000

            TOTAL IN =  1012868480.2872              TOTAL IN =     1207662.9430

          OUT:                                     OUT:
          ----                                     ----
             STORAGE =      744074.2545               STORAGE =           0.0000
       CONSTANT HEAD =           0.0000         CONSTANT HEAD =           0.0000
              DRAINS =   979274576.8672                DRAINS =     1177663.4959
            RECHARGE =           0.0000              RECHARGE =           0.0000
       MANAGED WELLS =    32850000.0000         MANAGED WELLS =       30000.0000

           TOTAL OUT =  1012868651.1217             TOTAL OUT =     1207663.4959

            IN - OUT =        -170.8345              IN - OUT =          -0.5529

 PERCENT DISCREPANCY =           0.00     PERCENT DISCREPANCY =           0.00






         TIME SUMMARY AT END OF TIME STEP    1 IN STRESS PERIOD    9
                    SECONDS     MINUTES      HOURS       DAYS        YEARS
                    -----------------------------------------------------------
   TIME STEP LENGTH 7.94880E+06 1.32480E+05  2208.0      92.000     0.25188    
 STRESS PERIOD TIME 7.94880E+06 1.32480E+05  2208.0      92.000     0.25188    
         TOTAL TIME 7.10208E+07 1.18368E+06  19728.      822.00      2.2505    
1
1
                            STRESS PERIOD NO.   10, LENGTH =   91.00000    
                            -----------------------------------------------

                              NUMBER OF TIME STEPS =     1

                               MULTIPLIER FOR DELT =     1.500

                            INITIAL TIME STEP SIZE =   91.00000    

 REUSING NON-PARAMETER DRAINS FROM LAST STRESS PERIOD

     40 DRAINS

                 RECHARGE =  2.000000E-03

Flows at Managed Wells for Stress Period   10

 Well no.  Layer   Row   Col   Stress Rate
 ----------------------------------------------------
        1      1    12    11   -15485.97923628778    
        2      1    16    17    0.000000000000000    
        3      1    14    25   -29514.02076371221    
 ----------------------------------------------------
                      Total:   -45000.00000000000    
 
 SOLVING FOR HEAD 


     4 CALLS TO PCG ROUTINE FOR TIME STEP   1 IN STRESS PERIOD   10
    15 TOTAL ITERATIONS

 OUTPUT CONTROL FOR STRESS PERIOD   10   TIME STEP    1
    PRINT BUDGET
    PRINT HEAD FOR ALL LAYERS
    SAVE BUDGET

           DRAINS   PERIOD   10   STEP   1
 DRAIN      1   LAYER   1   ROW    13   COL     1   RATE    -28256.9    
 DRAIN      2   LAYER   1   ROW    13   COL     2   RATE    -38411.8    
 DRAIN      3   LAYER   1   ROW    14   COL     3   RATE    -33957.0    
 DRAIN      4   LAYER   1   ROW    15   COL     4   RATE    -33309.3    
 DRAIN      5   LAYER   1   ROW    16   COL     5   RATE    -35092.8    
 DRAIN      6   LAYER   1   ROW    16   COL     6   RATE    -30599.6    
 DRAIN      7   LAYER   1   ROW    16   COL     7   RATE    -30337.3    
 DRAIN      8   LAYER   1   ROW    16   COL     8   RATE    -30441.3    
 DRAIN      9   LAYER   1   ROW    16   COL     9   RATE    -30439.8    
 DRAIN     10   LAYER   1   ROW    16   COL    10   RATE    -30425.0    
 DRAIN     11   LAYER   1   ROW    16   COL    11   RATE    -31142.7    
 DRAIN     12   LAYER   1   ROW    16   COL    12   RATE    -37289.3    
 DRAIN     13   LAYER   1   ROW    15   COL    13   RATE    -35477.4    
 DRAIN     14   LAYER   1   ROW    14   COL    14   RATE    -35982.8    
 DRAIN     15   LAYER   1   ROW    13   COL    15   RATE    -38458.7    
 DRAIN     16   LAYER   1   ROW    12   COL    16   RATE    -44917.8    
 DRAIN     17   LAYER   1   ROW    12   COL    17   RATE    -35660.2    
 DRAIN     18   LAYER   1   ROW    12   COL    18   RATE    -34310.9    
 DRAIN     19   LAYER   1   ROW    12   COL    19   RATE    -39069.0    
 DRAIN     20   LAYER   1   ROW    13   COL    20   RATE    -30133.1    
 DRAIN     21   LAYER   1   ROW    14   COL    21   RATE    -25768.8    
 DRAIN     22   LAYER   1   ROW    14   COL    22   RATE    -10009.7    
 DRAIN     23   LAYER   1   ROW     9   COL    30   RATE    -27172.7    
 DRAIN     24   LAYER   1   ROW     9   COL    29   RATE    -29839.1    
 DRAIN     25   LAYER   1   ROW     9   COL    28   RATE    -34267.5    
 DRAIN     26   LAYER   1   ROW     9   COL    27   RATE    -48838.5    
 DRAIN     27   LAYER   1   ROW    10   COL    26   RATE    -34316.6    
 DRAIN     28   LAYER   1   ROW    11   COL    25   RATE    -25135.7    
 DRAIN     29   LAYER   1   ROW    12   COL    24   RATE    -17896.5    
 DRAIN     30   LAYER   1   ROW    13   COL    23   RATE    -13645.7    
 DRAIN     31   LAYER   1   ROW    14   COL    22   RATE    -5004.87    
 DRAIN     32   LAYER   1   ROW    14   COL    22   RATE    -5004.87    
 DRAIN     33   LAYER   1   ROW    15   COL    23   RATE    -18505.4    
 DRAIN     34   LAYER   1   ROW    15   COL    24   RATE    -14566.6    
 DRAIN     35   LAYER   1   ROW    15   COL    25   RATE    -11423.0    
 DRAIN     36   LAYER   1   ROW    15   COL    26   RATE    -17623.9    
 DRAIN     37   LAYER   1   ROW    16   COL    27   RATE    -28248.6    
 DRAIN     38   LAYER   1   ROW    17   COL    28   RATE    -36640.5    
 DRAIN     39   LAYER   1   ROW    18   COL    29   RATE    -48608.7    
 DRAIN     40   LAYER   1   ROW    18   COL    30   RATE    -45670.1    
1
              HEAD IN LAYER   1 AT END OF TIME STEP   1 IN STRESS PERIOD   10
  ---------------------------------------------------------------------------

           1       2       3       4       5       6       7       8       9      10      11      12      13      14      15
          16      17      18      19      20      21      22      23      24      25      26      27      28      29      30
 ...........................................................................................................................
   1   100.50  100.00   99.50   99.00   98.50   98.00   97.50   97.00   96.50   96.00   95.50   95.00   94.50   94.00   93.50
        93.00   92.50   92.00   91.50   91.00   90.50   90.00   89.50   89.00   88.50   88.00   87.50   87.00   86.50   86.00
   2    95.84   95.59   95.24   94.84   94.40   93.95   93.48   92.99   92.48   91.97   91.44   90.90   90.35   89.80   89.24
        88.68   88.11   87.55   86.98   86.40   85.83   85.24   84.65   84.05   83.47   82.90   82.36   81.87   81.46   81.18
   3    91.42   91.27   91.01   90.69   90.32   89.90   89.45   88.98   88.47   87.93   87.37   86.79   86.20   85.59   84.97
        84.34   83.72   83.08   82.45   81.80   81.14   80.47   79.78   79.09   78.40   77.75   77.16   76.65   76.27   76.05
   4    87.14   87.03   86.84   86.57   86.25   85.87   85.45   84.98   84.46   83.91   83.31   82.69   82.04   81.37   80.69
        80.00   79.30   78.61   77.91   77.19   76.46   75.69   74.90   74.10   73.29   72.53   71.85   71.30   70.91   70.70
   5    82.95   82.87   82.72   82.50   82.22   81.88   81.47   81.01   80.48   79.90   79.27   78.59   77.88   77.15   76.40
        75.64   74.88   74.13   73.37   72.59   71.78   70.93   70.03   69.08   68.13   67.21   66.40   65.77   65.34   65.12
   6    78.82   78.77   78.65   78.48   78.24   77.93   77.54   77.08   76.54   75.93   75.25   74.52   73.74   72.93   72.10
        71.26   70.44   69.63   68.83   68.01   67.14   66.20   65.17   64.07   62.91   61.77   60.76   60.01   59.54   59.32
   7    74.74   74.71   74.63   74.51   74.31   74.04   73.68   73.21   72.66   72.01   71.28   70.48   69.62   68.71   67.78
        66.86   65.97   65.12   64.29   63.45   62.55   61.54   60.39   59.09   57.66   56.18   54.84   53.96   53.48   53.27
   8    70.67   70.67   70.65   70.59   70.46   70.23   69.89   69.43   68.85   68.16   67.36   66.48   65.52   64.50   63.44
        62.41   61.45   60.57   59.76   58.94   58.05   57.00   55.74   54.22   52.45   50.45   48.44   47.50   47.12   47.01
   9    66.59   66.63   66.70   66.73   66.68   66.51   66.21   65.75   65.14   64.39   63.52   62.55   61.48   60.30   59.07
        57.87   56.83   55.95   55.20   54.50   53.70   52.66   51.32   49.60   47.45   44.71   40.94   40.46   40.49   40.61
  10    62.45   62.56   62.76   62.93   63.00   62.92   62.66   62.21   61.56   60.73   59.75   58.72   57.52   56.15   54.65
        53.17   52.02   51.18   50.58   50.15   49.55   48.61   47.25   45.41   43.02   39.97   39.92   39.76   39.72   39.75
  11    58.18   58.39   58.82   59.23   59.47   59.49   59.28   58.84   58.15   57.21   56.03   55.02   53.73   52.11   50.18
        48.13   46.90   46.15   45.79   45.95   45.74   44.98   43.65   41.74   39.26   39.07   38.98   38.91   38.89   38.89
  12    53.70   53.98   54.90   55.67   56.13   56.28   56.13   55.71   54.99   53.90   52.12   51.59   50.27   48.36   45.80
        42.25   41.28   40.72   40.45   42.09   42.46   41.90   40.60   38.64   38.20   38.04   38.01   38.00   38.01   38.02
  13    48.91   48.92   51.11   52.40   53.10   53.35   53.24   52.85   52.19   51.25   50.05   48.93   47.37   45.24   42.42
        42.74   42.39   41.82   41.02   39.51   40.08   39.54   38.18   37.60   36.85   36.88   36.99   37.07   37.11   37.13
  14    49.76   49.35   48.20   49.70   50.51   50.75   50.63   50.24   49.65   48.86   47.88   46.70   45.04   42.80   43.58
        43.88   43.69   43.16   42.26   40.85   38.79   38.00   37.70   36.69   34.71   35.62   35.98   36.15   36.23   36.26
  15    50.99   50.50   49.41   47.67   48.49   48.51   48.25   47.83   47.29   46.64   45.88   44.93   43.27   44.51   45.22
        45.48   45.33   44.84   44.01   42.83   41.36   39.96   37.93   36.73   35.57   34.88   35.15   35.31   35.38   35.39
  16    52.70   52.24   51.27   49.71   47.25   46.53   46.02   45.52   45.02   44.52   44.06   43.86   45.69   46.73   47.29
        47.47   47.31   46.84   46.10   45.08   43.86   42.52   41.00   39.62   38.23   36.69   34.41   34.54   34.57   34.51
  17    54.85   54.47   53.72   52.62   51.29   50.44   49.82   49.29   48.83   48.43   48.17   48.22   48.87   49.43   49.74
        49.79   49.58   49.12   48.43   47.54   46.46   45.25   43.91   42.52   41.01   39.23   36.91   33.83   33.85   33.55
  18    57.36   57.07   56.50   55.72   54.85   54.11   53.50   52.99   52.55   52.20   51.97   51.95   52.15   52.35   52.44
        52.35   52.08   51.62   50.97   50.15   49.18   48.08   46.86   45.53   44.04   42.29   40.14   37.35   33.43   32.28
  19    60.14   59.92   59.49   58.91   58.26   57.64   57.08   56.59   56.16   55.82   55.57   55.43   55.40   55.38   55.29
        55.09   54.76   54.28   53.66   52.91   52.02   51.02   49.90   48.67   47.31   45.76   43.98   41.98   39.95   38.98
  20    63.13   62.95   62.61   62.15   61.62   61.09   60.58   60.11   59.68   59.32   59.03   58.80   58.62   58.45   58.24
        57.95   57.57   57.08   56.48   55.77   54.96   54.05   53.05   51.95   50.75   49.44   48.03   46.61   45.38   44.71
  21    66.29   66.13   65.84   65.44   64.98   64.50   64.02   63.56   63.13   62.75   62.40   62.10   61.83   61.55   61.25
        60.90   60.47   59.98   59.39   58.73   57.99   57.16   56.27   55.30   54.27   53.19   52.09   51.06   50.22   49.75
  22    69.59   69.44   69.15   68.78   68.35   67.89   67.42   66.96   66.52   66.11   65.73   65.36   65.01   64.66   64.30
        63.89   63.44   62.94   62.38   61.75   61.07   60.34   59.55   58.71   57.84   56.95   56.08   55.28   54.66   54.32
  23    73.04   72.85   72.55   72.16   71.73   71.27   70.80   70.33   69.88   69.44   69.01   68.60   68.19   67.78   67.36
        66.92   66.45   65.94   65.40   64.82   64.20   63.55   62.86   62.14   61.41   60.67   59.96   59.32   58.82   58.53
  24    76.64   76.38   76.00   75.57   75.11   74.64   74.16   73.68   73.20   72.73   72.27   71.81   71.35   70.90   70.43
        69.96   69.47   68.97   68.45   67.91   67.35   66.77   66.18   65.58   64.96   64.35   63.76   63.21   62.74   62.43
  25    80.50   80.00   79.50   79.00   78.50   78.00   77.50   77.00   76.50   76.00   75.50   75.00   74.50   74.00   73.50
        73.00   72.50   72.00   71.50   71.00   70.50   70.00   69.50   69.00   68.50   68.00   67.50   67.00   66.50   66.00
1
  VOLUMETRIC BUDGET FOR ENTIRE MODEL AT END OF TIME STEP    1, STRESS PERIOD  10
  ------------------------------------------------------------------------------

     CUMULATIVE VOLUMES      L**3       RATES FOR THIS TIME STEP      L**3/T
     ------------------                 ------------------------

           IN:                                      IN:
           ---                                      ---
             STORAGE =    21577229.6748               STORAGE =         240.4246
       CONSTANT HEAD =  1079263980.1126         CONSTANT HEAD =     1173947.8117
              DRAINS =           0.0000                DRAINS =           0.0000
            RECHARGE =    23901600.0000              RECHARGE =       55200.0000
       MANAGED WELLS =           0.0000         MANAGED WELLS =           0.0000

            TOTAL IN =  1124742809.7874              TOTAL IN =     1229388.2363

          OUT:                                     OUT:
          ----                                     ----
             STORAGE =      970491.1329               STORAGE =        2488.0976
       CONSTANT HEAD =           0.0000         CONSTANT HEAD =           0.0000
              DRAINS =  1086827486.4805                DRAINS =     1181900.1056
            RECHARGE =           0.0000              RECHARGE =           0.0000
       MANAGED WELLS =    36945000.0000         MANAGED WELLS =       45000.0000

           TOTAL OUT =  1124742977.6134             TOTAL OUT =     1229388.2032

            IN - OUT =        -167.8260              IN - OUT =       3.3060E-02

 PERCENT DISCREPANCY =           0.00     PERCENT DISCREPANCY =           0.00






         TIME SUMMARY AT END OF TIME STEP    1 IN STRESS PERIOD   10
                    SECONDS     MINUTES      HOURS       DAYS        YEARS
                    -----------------------------------------------------------
   TIME STEP LENGTH 7.86240E+06 1.31040E+05  2184.0      91.000     0.24914    
 STRESS PERIOD TIME 7.86240E+06 1.31040E+05  2184.0      91.000     0.24914    
         TOTAL TIME 7.88832E+07 1.31472E+06  21912.      913.00      2.4997    
1
1
                            STRESS PERIOD NO.   11, LENGTH =   91.00000    
                            -----------------------------------------------

                              NUMBER OF TIME STEPS =     1

                               MULTIPLIER FOR DELT =     1.500

                            INITIAL TIME STEP SIZE =   91.00000    

 REUSING NON-PARAMETER DRAINS FROM LAST STRESS PERIOD

     40 DRAINS

                 RECHARGE =   0.00000    

Flows at Managed Wells for Stress Period   11

 Well no.  Layer   Row   Col   Stress Rate
 ----------------------------------------------------
        1      1    12    11   -15485.97923628778    
        2      1    16    17   -44514.02076371221    
        3      1    14    25    0.000000000000000    
 ----------------------------------------------------
                      Total:   -60000.00000000000    
 
 SOLVING FOR HEAD 


     4 CALLS TO PCG ROUTINE FOR TIME STEP   1 IN STRESS PERIOD   11
    16 TOTAL ITERATIONS

 OUTPUT CONTROL FOR STRESS PERIOD   11   TIME STEP    1
    PRINT BUDGET
    PRINT HEAD FOR ALL LAYERS
    SAVE BUDGET

           DRAINS   PERIOD   11   STEP   1
 DRAIN      1   LAYER   1   ROW    13   COL     1   RATE    -27388.0    
 DRAIN      2   LAYER   1   ROW    13   COL     2   RATE    -37365.2    
 DRAIN      3   LAYER   1   ROW    14   COL     3   RATE    -32917.5    
 DRAIN      4   LAYER   1   ROW    15   COL     4   RATE    -32290.5    
 DRAIN      5   LAYER   1   ROW    16   COL     5   RATE    -34136.4    
 DRAIN      6   LAYER   1   ROW    16   COL     6   RATE    -29737.3    
 DRAIN      7   LAYER   1   ROW    16   COL     7   RATE    -29439.8    
 DRAIN      8   LAYER   1   ROW    16   COL     8   RATE    -29474.2    
 DRAIN      9   LAYER   1   ROW    16   COL     9   RATE    -29365.4    
 DRAIN     10   LAYER   1   ROW    16   COL    10   RATE    -29167.2    
 DRAIN     11   LAYER   1   ROW    16   COL    11   RATE    -29491.8    
 DRAIN     12   LAYER   1   ROW    16   COL    12   RATE    -34353.0    
 DRAIN     13   LAYER   1   ROW    15   COL    13   RATE    -31574.9    
 DRAIN     14   LAYER   1   ROW    14   COL    14   RATE    -31427.2    
 DRAIN     15   LAYER   1   ROW    13   COL    15   RATE    -34164.4    
 DRAIN     16   LAYER   1   ROW    12   COL    16   RATE    -42031.5    
 DRAIN     17   LAYER   1   ROW    12   COL    17   RATE    -32715.2    
 DRAIN     18   LAYER   1   ROW    12   COL    18   RATE    -31582.4    
 DRAIN     19   LAYER   1   ROW    12   COL    19   RATE    -36744.1    
 DRAIN     20   LAYER   1   ROW    13   COL    20   RATE    -26997.7    
 DRAIN     21   LAYER   1   ROW    14   COL    21   RATE    -22763.3    
 DRAIN     22   LAYER   1   ROW    14   COL    22   RATE    -9628.16    
 DRAIN     23   LAYER   1   ROW     9   COL    30   RATE    -26864.9    
 DRAIN     24   LAYER   1   ROW     9   COL    29   RATE    -29542.6    
 DRAIN     25   LAYER   1   ROW     9   COL    28   RATE    -33970.5    
 DRAIN     26   LAYER   1   ROW     9   COL    27   RATE    -48427.5    
 DRAIN     27   LAYER   1   ROW    10   COL    26   RATE    -34330.2    
 DRAIN     28   LAYER   1   ROW    11   COL    25   RATE    -26023.9    
 DRAIN     29   LAYER   1   ROW    12   COL    24   RATE    -19665.9    
 DRAIN     30   LAYER   1   ROW    13   COL    23   RATE    -14954.6    
 DRAIN     31   LAYER   1   ROW    14   COL    22   RATE    -4814.08    
 DRAIN     32   LAYER   1   ROW    14   COL    22   RATE    -4814.08    
 DRAIN     33   LAYER   1   ROW    15   COL    23   RATE    -17897.5    
 DRAIN     34   LAYER   1   ROW    15   COL    24   RATE    -16709.0    
 DRAIN     35   LAYER   1   ROW    15   COL    25   RATE    -17386.2    
 DRAIN     36   LAYER   1   ROW    15   COL    26   RATE    -20720.1    
 DRAIN     37   LAYER   1   ROW    16   COL    27   RATE    -28523.7    
 DRAIN     38   LAYER   1   ROW    17   COL    28   RATE    -36242.8    
 DRAIN     39   LAYER   1   ROW    18   COL    29   RATE    -47991.7    
 DRAIN     40   LAYER   1   ROW    18   COL    30   RATE    -45214.9    
1
              HEAD IN LAYER   1 AT END OF TIME STEP   1 IN STRESS PERIOD   11
  ---------------------------------------------------------------------------

           1       2       3       4       5       6       7       8       9      10      11      12      13      14      15
          16      17      18      19      20      21      22      23      24      25      26      27      28      29      30
 ...........................................................................................................................
   1   100.50  100.00   99.50   99.00   98.50   98.00   97.50   97.00   96.50   96.00   95.50   95.00   94.50   94.00   93.50
        93.00   92.50   92.00   91.50   91.00   90.50   90.00   89.50   89.00   88.50   88.00   87.50   87.00   86.50   86.00
   2    95.75   95.50   95.15   94.75   94.31   93.86   93.38   92.90   92.39   91.88   91.35   90.81   90.26   89.71   89.15
        88.59   88.03   87.47   86.90   86.33   85.75   85.16   84.58   83.99   83.40   82.84   82.30   81.81   81.40   81.12
   3    91.26   91.10   90.85   90.52   90.15   89.73   89.28   88.81   88.30   87.76   87.20   86.63   86.03   85.42   84.81
        84.19   83.56   82.93   82.30   81.66   81.00   80.33   79.65   78.97   78.29   77.64   77.05   76.55   76.17   75.95
   4    86.91   86.81   86.61   86.34   86.02   85.64   85.22   84.74   84.23   83.67   83.08   82.46   81.81   81.15   80.47
        79.78   79.10   78.41   77.71   77.00   76.27   75.52   74.73   73.94   73.14   72.39   71.71   71.16   70.77   70.57
   5    82.68   82.60   82.45   82.23   81.94   81.60   81.19   80.72   80.20   79.62   78.99   78.32   77.61   76.88   76.13
        75.38   74.63   73.88   73.13   72.36   71.57   70.72   69.83   68.90   67.96   67.05   66.25   65.62   65.19   64.98
   6    78.52   78.46   78.35   78.17   77.93   77.61   77.22   76.76   76.22   75.61   74.94   74.21   73.43   72.62   71.80
        70.98   70.16   69.36   68.57   67.76   66.90   65.98   64.97   63.88   62.73   61.61   60.61   59.87   59.40   59.18
   7    74.42   74.38   74.31   74.18   73.98   73.70   73.33   72.87   72.31   71.67   70.94   70.14   69.29   68.39   67.47
        66.56   65.68   64.84   64.02   63.20   62.31   61.31   60.18   58.90   57.50   56.04   54.71   53.84   53.36   53.16
   8    70.35   70.34   70.32   70.25   70.11   69.88   69.54   69.07   68.49   67.80   67.01   66.13   65.18   64.17   63.12
        62.10   61.16   60.29   59.49   58.69   57.82   56.79   55.55   54.06   52.31   50.34   48.35   47.42   47.05   46.93
   9    66.28   66.32   66.38   66.40   66.34   66.17   65.85   65.39   64.78   64.03   63.16   62.20   61.14   59.97   58.76
        57.58   56.55   55.68   54.95   54.27   53.48   52.47   51.16   49.48   47.36   44.64   40.92   40.45   40.48   40.59
  10    62.18   62.28   62.46   62.63   62.68   62.59   62.32   61.86   61.21   60.38   59.40   58.37   57.19   55.83   54.35
        52.90   51.77   50.94   50.36   49.94   49.36   48.46   47.13   45.33   42.99   39.97   39.93   39.77   39.73   39.74
  11    57.96   58.16   58.57   58.96   59.18   59.19   58.97   58.52   57.82   56.87   55.70   54.69   53.42   51.81   49.91
        47.90   46.69   45.95   45.60   45.77   45.58   44.86   43.58   41.74   39.30   39.17   39.07   38.97   38.92   38.91
  12    53.55   53.82   54.71   55.45   55.89   56.01   55.85   55.41   54.69   53.59   51.81   51.29   49.98   48.09   45.58
        42.10   41.14   40.58   40.34   41.94   42.32   41.82   40.59   38.73   38.52   38.33   38.21   38.12   38.08   38.06
  13    48.87   48.87   50.99   52.23   52.90   53.13   53.00   52.60   51.93   50.99   49.78   48.66   47.11   45.00   42.21
        42.20   41.71   41.21   40.57   39.35   39.95   39.50   38.25   38.02   37.70   37.44   37.30   37.24   37.20   37.19
  14    49.67   49.27   48.15   49.59   50.37   50.58   50.44   50.05   49.44   48.64   47.65   46.47   44.81   42.57   42.89
        42.76   42.32   41.96   41.38   40.33   38.64   37.96   37.87   37.39   36.84   36.41   36.33   36.32   36.31   36.31
  15    50.86   50.38   49.32   47.61   48.40   48.40   48.13   47.70   47.15   46.49   45.72   44.74   43.08   43.87   44.03
        43.63   42.83   42.91   42.67   41.96   40.86   39.70   37.89   36.84   35.87   35.04   35.30   35.40   35.43   35.41
  16    52.53   52.09   51.14   49.61   47.21   46.49   45.97   45.47   44.97   44.46   43.97   43.72   45.20   45.81   45.74
        44.87   42.46   44.19   44.42   43.97   43.13   42.06   40.75   39.53   38.24   36.71   34.43   34.55   34.58   34.51
  17    54.66   54.29   53.55   52.46   51.16   50.32   49.69   49.15   48.66   48.23   47.90   47.82   48.21   48.40   48.23
        47.66   46.82   46.94   46.83   46.38   45.64   44.67   43.53   42.28   40.87   39.14   36.85   33.81   33.83   33.53
  18    57.14   56.86   56.30   55.53   54.67   53.93   53.31   52.77   52.30   51.90   51.59   51.43   51.42   51.36   51.12
        50.70   50.21   49.93   49.59   49.07   48.35   47.46   46.40   45.20   43.80   42.12   40.01   37.26   33.40   32.26
  19    59.92   59.69   59.27   58.69   58.05   57.42   56.85   56.33   55.87   55.47   55.14   54.89   54.69   54.48   54.18
        53.80   53.37   52.97   52.51   51.95   51.25   50.41   49.43   48.31   47.02   45.53   43.80   41.84   39.84   38.89
  20    62.91   62.73   62.39   61.93   61.40   60.86   60.33   59.84   59.38   58.97   58.60   58.28   57.98   57.68   57.33
        56.94   56.51   56.05   55.55   54.96   54.28   53.49   52.59   51.58   50.45   49.19   47.83   46.44   45.23   44.57
  21    66.08   65.93   65.63   65.23   64.77   64.27   63.78   63.30   62.84   62.41   62.02   61.64   61.28   60.92   60.53
        60.11   59.66   59.18   58.65   58.07   57.41   56.68   55.86   54.96   53.99   52.95   51.89   50.88   50.05   49.60
  22    69.41   69.26   68.97   68.60   68.16   67.69   67.21   66.74   66.28   65.83   65.40   64.99   64.59   64.18   63.75
        63.31   62.84   62.35   61.82   61.25   60.62   59.95   59.21   58.43   57.60   56.74   55.89   55.12   54.51   54.18
  23    72.90   72.72   72.41   72.02   71.58   71.12   70.64   70.16   69.69   69.23   68.78   68.33   67.89   67.44   66.99
        66.53   66.05   65.55   65.02   64.47   63.89   63.27   62.62   61.93   61.23   60.51   59.82   59.19   58.70   58.41
  24    76.57   76.30   75.93   75.50   75.03   74.56   74.07   73.58   73.10   72.62   72.14   71.67   71.19   70.72   70.24
        69.76   69.27   68.77   68.26   67.73   67.19   66.63   66.05   65.46   64.86   64.26   63.68   63.14   62.67   62.36
  25    80.50   80.00   79.50   79.00   78.50   78.00   77.50   77.00   76.50   76.00   75.50   75.00   74.50   74.00   73.50
        73.00   72.50   72.00   71.50   71.00   70.50   70.00   69.50   69.00   68.50   68.00   67.50   67.00   66.50   66.00
1
  VOLUMETRIC BUDGET FOR ENTIRE MODEL AT END OF TIME STEP    1, STRESS PERIOD  11
  ------------------------------------------------------------------------------

     CUMULATIVE VOLUMES      L**3       RATES FOR THIS TIME STEP      L**3/T
     ------------------                 ------------------------

           IN:                                      IN:
           ---                                      ---
             STORAGE =    21995353.9865               STORAGE =        4594.7727
       CONSTANT HEAD =  1188869920.5146         CONSTANT HEAD =     1204460.8835
              DRAINS =           0.0000                DRAINS =           0.0000
            RECHARGE =    23901600.0000              RECHARGE =           0.0000
       MANAGED WELLS =           0.0000         MANAGED WELLS =           0.0000

            TOTAL IN =  1234766874.5011              TOTAL IN =     1209055.6562

          OUT:                                     OUT:
          ----                                     ----
             STORAGE =      989257.5876               STORAGE =         206.2248
       CONSTANT HEAD =           0.0000         CONSTANT HEAD =           0.0000
              DRAINS =  1191372789.1146                DRAINS =     1148849.4795
            RECHARGE =           0.0000              RECHARGE =           0.0000
       MANAGED WELLS =    42405000.0000         MANAGED WELLS =       60000.0000

           TOTAL OUT =  1234767046.7022             TOTAL OUT =     1209055.7043

            IN - OUT =        -172.2011              IN - OUT =      -4.8078E-02

 PERCENT DISCREPANCY =           0.00     PERCENT DISCREPANCY =           0.00






         TIME SUMMARY AT END OF TIME STEP    1 IN STRESS PERIOD   11
                    SECONDS     MINUTES      HOURS       DAYS        YEARS
                    -----------------------------------------------------------
   TIME STEP LENGTH 7.86240E+06 1.31040E+05  2184.0      91.000     0.24914    
 STRESS PERIOD TIME 7.86240E+06 1.31040E+05  2184.0      91.000     0.24914    
         TOTAL TIME 8.67456E+07 1.44576E+06  24096.      1004.0      2.7488    
1
1
                            STRESS PERIOD NO.   12, LENGTH =   91.00000    
                            -----------------------------------------------

                              NUMBER OF TIME STEPS =     1

                               MULTIPLIER FOR DELT =     1.500

                            INITIAL TIME STEP SIZE =   91.00000    

 REUSING NON-PARAMETER DRAINS FROM LAST STRESS PERIOD

     40 DRAINS

                 RECHARGE =  1.000000E-03

Flows at Managed Wells for Stress Period   12

 Well no.  Layer   Row   Col   Stress Rate
 ----------------------------------------------------
        1      1    12    11   -15485.97923628778    
        2      1    16    17   -14514.02076371222    
 ----------------------------------------------------
                      Total:   -30000.00000000000    
 
 SOLVING FOR HEAD 


     4 CALLS TO PCG ROUTINE FOR TIME STEP   1 IN STRESS PERIOD   12
    15 TOTAL ITERATIONS

 OUTPUT CONTROL FOR STRESS PERIOD   12   TIME STEP    1
    PRINT BUDGET
    PRINT HEAD FOR ALL LAYERS
    SAVE BUDGET

           DRAINS   PERIOD   12   STEP   1
 DRAIN      1   LAYER   1   ROW    13   COL     1   RATE    -27793.9    
 DRAIN      2   LAYER   1   ROW    13   COL     2   RATE    -37853.1    
 DRAIN      3   LAYER   1   ROW    14   COL     3   RATE    -33407.2    
 DRAIN      4   LAYER   1   ROW    15   COL     4   RATE    -32774.7    
 DRAIN      5   LAYER   1   ROW    16   COL     5   RATE    -34597.1    
 DRAIN      6   LAYER   1   ROW    16   COL     6   RATE    -30156.4    
 DRAIN      7   LAYER   1   ROW    16   COL     7   RATE    -29881.7    
 DRAIN      8   LAYER   1   ROW    16   COL     8   RATE    -29959.3    
 DRAIN      9   LAYER   1   ROW    16   COL     9   RATE    -29918.4    
 DRAIN     10   LAYER   1   ROW    16   COL    10   RATE    -29837.8    
 DRAIN     11   LAYER   1   ROW    16   COL    11   RATE    -30413.7    
 DRAIN     12   LAYER   1   ROW    16   COL    12   RATE    -36084.2    
 DRAIN     13   LAYER   1   ROW    15   COL    13   RATE    -33928.3    
 DRAIN     14   LAYER   1   ROW    14   COL    14   RATE    -34211.2    
 DRAIN     15   LAYER   1   ROW    13   COL    15   RATE    -36786.0    
 DRAIN     16   LAYER   1   ROW    12   COL    16   RATE    -43742.4    
 DRAIN     17   LAYER   1   ROW    12   COL    17   RATE    -34509.6    
 DRAIN     18   LAYER   1   ROW    12   COL    18   RATE    -33253.5    
 DRAIN     19   LAYER   1   ROW    12   COL    19   RATE    -38171.9    
 DRAIN     20   LAYER   1   ROW    13   COL    20   RATE    -29008.9    
 DRAIN     21   LAYER   1   ROW    14   COL    21   RATE    -24779.4    
 DRAIN     22   LAYER   1   ROW    14   COL    22   RATE    -10132.1    
 DRAIN     23   LAYER   1   ROW     9   COL    30   RATE    -27162.9    
 DRAIN     24   LAYER   1   ROW     9   COL    29   RATE    -29842.9    
 DRAIN     25   LAYER   1   ROW     9   COL    28   RATE    -34282.9    
 DRAIN     26   LAYER   1   ROW     9   COL    27   RATE    -48812.3    
 DRAIN     27   LAYER   1   ROW    10   COL    26   RATE    -34749.3    
 DRAIN     28   LAYER   1   ROW    11   COL    25   RATE    -26458.3    
 DRAIN     29   LAYER   1   ROW    12   COL    24   RATE    -20111.6    
 DRAIN     30   LAYER   1   ROW    13   COL    23   RATE    -15461.7    
 DRAIN     31   LAYER   1   ROW    14   COL    22   RATE    -5066.03    
 DRAIN     32   LAYER   1   ROW    14   COL    22   RATE    -5066.03    
 DRAIN     33   LAYER   1   ROW    15   COL    23   RATE    -19050.7    
 DRAIN     34   LAYER   1   ROW    15   COL    24   RATE    -17359.1    
 DRAIN     35   LAYER   1   ROW    15   COL    25   RATE    -17882.6    
 DRAIN     36   LAYER   1   ROW    15   COL    26   RATE    -21178.2    
 DRAIN     37   LAYER   1   ROW    16   COL    27   RATE    -29063.7    
 DRAIN     38   LAYER   1   ROW    17   COL    28   RATE    -36760.9    
 DRAIN     39   LAYER   1   ROW    18   COL    29   RATE    -48454.0    
 DRAIN     40   LAYER   1   ROW    18   COL    30   RATE    -45572.1    
1
              HEAD IN LAYER   1 AT END OF TIME STEP   1 IN STRESS PERIOD   12
  ---------------------------------------------------------------------------

           1       2       3       4       5       6       7       8       9      10      11      12      13      14      15
          16      17      18      19      20      21      22      23      24      25      26      27      28      29      30
 ...........................................................................................................................
   1   100.50  100.00   99.50   99.00   98.50   98.00   97.50   97.00   96.50   96.00   95.50   95.00   94.50   94.00   93.50
        93.00   92.50   92.00   91.50   91.00   90.50   90.00   89.50   89.00   88.50   88.00   87.50   87.00   86.50   86.00
   2    95.79   95.54   95.19   94.79   94.35   93.90   93.43   92.94   92.44   91.92   91.39   90.85   90.31   89.75   89.19
        88.63   88.07   87.51   86.94   86.36   85.79   85.20   84.61   84.02   83.44   82.87   82.33   81.84   81.43   81.15
   3    91.33   91.18   90.92   90.60   90.22   89.81   89.36   88.88   88.38   87.84   87.28   86.71   86.11   85.50   84.88
        84.26   83.64   83.01   82.37   81.73   81.07   80.40   79.72   79.03   78.35   77.70   77.10   76.60   76.22   76.00
   4    87.02   86.91   86.72   86.45   86.12   85.75   85.32   84.85   84.34   83.78   83.19   82.57   81.92   81.25   80.57
        79.89   79.20   78.51   77.81   77.10   76.36   75.60   74.82   74.02   73.22   72.46   71.78   71.23   70.84   70.64
   5    82.80   82.72   82.57   82.35   82.07   81.73   81.32   80.85   80.33   79.75   79.12   78.45   77.74   77.01   76.26
        75.50   74.75   74.00   73.25   72.48   71.67   70.83   69.93   68.99   68.05   67.13   66.33   65.69   65.27   65.05
   6    78.66   78.60   78.49   78.31   78.07   77.76   77.37   76.91   76.37   75.76   75.09   74.35   73.58   72.77   71.94
        71.11   70.30   69.50   68.70   67.88   67.02   66.09   65.08   63.98   62.83   61.69   60.69   59.94   59.47   59.25
   7    74.56   74.53   74.46   74.33   74.13   73.86   73.49   73.03   72.47   71.83   71.10   70.30   69.44   68.54   67.62
        66.71   65.82   64.98   64.16   63.33   62.43   61.43   60.29   59.01   57.59   56.12   54.78   53.90   53.42   53.22
   8    70.49   70.49   70.47   70.41   70.27   70.04   69.70   69.24   68.66   67.97   67.18   66.30   65.35   64.33   63.28
        62.26   61.30   60.43   59.63   58.82   57.94   56.90   55.65   54.16   52.39   50.40   48.40   47.47   47.09   46.98
   9    66.42   66.46   66.52   66.55   66.50   66.33   66.02   65.56   64.95   64.20   63.33   62.37   61.30   60.14   58.91
        57.73   56.69   55.82   55.08   54.39   53.60   52.58   51.26   49.56   47.42   44.69   40.94   40.46   40.49   40.61
  10    62.30   62.41   62.60   62.77   62.83   62.74   62.48   62.02   61.38   60.55   59.57   58.54   57.35   55.99   54.50
        53.04   51.90   51.07   50.48   50.06   49.48   48.56   47.22   45.40   43.04   39.99   39.96   39.81   39.77   39.78
  11    58.06   58.27   58.69   59.08   59.31   59.33   59.12   58.67   57.98   57.03   55.86   54.86   53.58   51.97   50.05
        48.02   46.81   46.06   45.71   45.87   45.68   44.95   43.65   41.78   39.32   39.20   39.11   39.02   38.97   38.96
  12    53.62   53.89   54.80   55.55   56.00   56.14   55.98   55.55   54.83   53.74   51.97   51.44   50.13   48.24   45.70
        42.19   41.23   40.66   40.41   42.04   42.42   41.89   40.65   38.76   38.55   38.38   38.26   38.18   38.14   38.12
  13    48.89   48.89   51.04   52.31   53.00   53.23   53.12   52.72   52.05   51.12   49.91   48.80   47.25   45.14   42.34
        42.54   42.14   41.60   40.85   39.45   40.04   39.56   38.27   38.05   37.75   37.49   37.36   37.30   37.27   37.26
  14    49.71   49.30   48.17   49.64   50.44   50.66   50.53   50.14   49.54   48.75   47.77   46.59   44.94   42.71   43.33
        43.47   43.20   42.72   41.94   40.66   38.74   38.01   37.92   37.43   36.88   36.46   36.39   36.38   36.38   36.38
  15    50.92   50.44   49.37   47.64   48.44   48.45   48.19   47.76   47.22   46.57   45.80   44.85   43.20   44.27   44.79
        44.82   44.46   44.15   43.53   42.52   41.19   39.88   37.95   36.87   35.89   35.06   35.34   35.45   35.49   35.48
  16    52.61   52.16   51.20   49.65   47.23   46.51   45.99   45.50   45.00   44.49   44.02   43.80   45.50   46.39   46.73
        46.55   45.65   45.91   45.49   44.68   43.60   42.37   40.94   39.66   38.33   36.77   34.45   34.60   34.63   34.56
  17    54.75   54.38   53.63   52.54   51.23   50.38   49.75   49.22   48.75   48.34   48.06   48.05   48.61   49.04   49.18
        49.02   48.60   48.34   47.85   47.11   46.15   45.04   43.79   42.47   41.00   39.24   36.91   33.84   33.87   33.57
  18    57.24   56.96   56.40   55.62   54.76   54.02   53.41   52.88   52.43   52.06   51.81   51.73   51.85   51.96   51.93
        51.73   51.39   50.99   50.45   49.74   48.87   47.85   46.70   45.42   43.97   42.25   40.10   37.32   33.42   32.28
  19    60.02   59.80   59.38   58.80   58.15   57.53   56.97   56.46   56.02   55.66   55.38   55.20   55.11   55.02   54.86
        54.59   54.23   53.78   53.22   52.53   51.72   50.78   49.72   48.54   47.21   45.68   43.92   41.92   39.90   38.95
  20    63.02   62.84   62.50   62.04   61.51   60.97   60.45   59.97   59.54   59.16   58.84   58.57   58.35   58.13   57.87
        57.55   57.15   56.67   56.11   55.45   54.69   53.83   52.86   51.80   50.63   49.34   47.95   46.54   45.31   44.65
  21    66.18   66.03   65.73   65.33   64.87   64.38   63.90   63.43   62.99   62.59   62.23   61.90   61.59   61.29   60.95
        60.57   60.14   59.65   59.09   58.46   57.75   56.97   56.10   55.17   54.16   53.09   52.01   50.98   50.15   49.69
  22    69.50   69.34   69.06   68.69   68.25   67.79   67.32   66.85   66.41   65.98   65.58   65.20   64.83   64.46   64.07
        63.65   63.19   62.69   62.14   61.54   60.89   60.17   59.41   58.59   57.74   56.86   56.00   55.21   54.60   54.25
  23    72.97   72.78   72.48   72.09   71.65   71.19   70.72   70.25   69.79   69.34   68.90   68.48   68.06   67.64   67.20
        66.75   66.28   65.78   65.24   64.67   64.07   63.43   62.76   62.05   61.33   60.60   59.90   59.26   58.76   58.47
  24    76.60   76.34   75.96   75.53   75.07   74.60   74.11   73.63   73.15   72.68   72.21   71.74   71.28   70.82   70.35
        69.87   69.39   68.88   68.37   67.83   67.28   66.71   66.12   65.53   64.92   64.31   63.72   63.18   62.71   62.40
  25    80.50   80.00   79.50   79.00   78.50   78.00   77.50   77.00   76.50   76.00   75.50   75.00   74.50   74.00   73.50
        73.00   72.50   72.00   71.50   71.00   70.50   70.00   69.50   69.00   68.50   68.00   67.50   67.00   66.50   66.00
1
  VOLUMETRIC BUDGET FOR ENTIRE MODEL AT END OF TIME STEP    1, STRESS PERIOD  12
  ------------------------------------------------------------------------------

     CUMULATIVE VOLUMES      L**3       RATES FOR THIS TIME STEP      L**3/T
     ------------------                 ------------------------

           IN:                                      IN:
           ---                                      ---
             STORAGE =    21995353.9865               STORAGE =           0.0000
       CONSTANT HEAD =  1297031208.2918         CONSTANT HEAD =     1188585.5800
              DRAINS =           0.0000                DRAINS =           0.0000
            RECHARGE =    26413200.0000              RECHARGE =       27600.0000
       MANAGED WELLS =           0.0000         MANAGED WELLS =           0.0000

            TOTAL IN =  1345439762.2782              TOTAL IN =     1216185.5800

          OUT:                                     OUT:
          ----                                     ----
             STORAGE =     1230375.4290               STORAGE =        2649.6466
       CONSTANT HEAD =           0.0000         CONSTANT HEAD =           0.0000
              DRAINS =  1299074550.4255                DRAINS =     1183535.8386
            RECHARGE =           0.0000              RECHARGE =           0.0000
       MANAGED WELLS =    45135000.0000         MANAGED WELLS =       30000.0000

           TOTAL OUT =  1345439925.8545             TOTAL OUT =     1216185.4852

            IN - OUT =        -163.5763              IN - OUT =       9.4779E-02

 PERCENT DISCREPANCY =           0.00     PERCENT DISCREPANCY =           0.00






         TIME SUMMARY AT END OF TIME STEP    1 IN STRESS PERIOD   12
                    SECONDS     MINUTES      HOURS       DAYS        YEARS
                    -----------------------------------------------------------
   TIME STEP LENGTH 7.86240E+06 1.31040E+05  2184.0      91.000     0.24914    
 STRESS PERIOD TIME 7.86240E+06 1.31040E+05  2184.0      91.000     0.24914    
         TOTAL TIME 9.46080E+07 1.57680E+06  26280.      1095.0      2.9979    
1

 Run end date and time (yyyy/mm/dd hh:mm:ss): 2013/09/18  8:14:56
 Elapsed run time:  0.421 Seconds

