                                  MODFLOW-LGR      
      U.S. GEOLOGICAL SURVEY MODULAR FINITE-DIFFERENCE GROUNDWATER FLOW MODEL
                 VERSION GWM-2005 1.3.1 053011,FROM MF-LGR V1.2


     FINAL FLOW PROCESS SIMULATION FOR GWM                                                                                                                                                                   


 REWOUND ..\data\STREAMFLOW\streamflow.dis
 FILE TYPE:DIS   UNIT   11

 REWOUND ..\data\STREAMFLOW\streamflow.ba6
 FILE TYPE:BAS6   UNIT   12

 REWOUND ..\data\STREAMFLOW\streamflow.bc6
 FILE TYPE:BCF6   UNIT   13

 REWOUND ..\data\STREAMFLOW\streamflow.rch
 FILE TYPE:RCH   UNIT   15

 REWOUND ..\data\STREAMFLOW\streamflow.sfr
 FILE TYPE:SFR   UNIT   16

 REWOUND ..\data\STREAMFLOW\streamflow.oc
 FILE TYPE:OC   UNIT   17

 REWOUND ..\data\STREAMFLOW\streamflow.pcg
 FILE TYPE:PCG   UNIT   18

 REWOUND ..\data\STREAMFLOW\streamflow.gwm
 FILE TYPE:GWM   UNIT   19

 REWOUND streamflow.gwmwell
 FILE TYPE:DATA   UNIT   20

 REWOUND streamflow.sfrout
 FILE TYPE:DATA   UNIT   81

 BAS -- BASIC PACKAGE, VERSION 7, 5/2/2005 INPUT READ FROM UNIT   12

 DISCRETIZATION INPUT DATA READ FROM UNIT   11
 #STREAMFLOW Sample Problem--DIS File
 #December 2009
    1 LAYERS        25 ROWS        30 COLUMNS
   12 STRESS PERIOD(S) IN SIMULATION
 MODEL TIME UNIT IS DAYS
 MODEL LENGTH UNIT IS UNDEFINED
  Confining bed flag for each layer:
   0

                     DELR =   200.000    

                     DELC =   200.000    

 TOP ELEVATION OF LAYER 1 =   100.000    

   MODEL LAYER BOTTOM EL. =   0.00000     FOR LAYER   1


 STRESS PERIOD     LENGTH       TIME STEPS     MULTIPLIER FOR DELT    SS FLAG
 ----------------------------------------------------------------------------
        1         92.00000          1                    1.500         TR
        2         91.00000          1                    1.500         TR
        3         91.00000          1                    1.500         TR
        4         91.00000          1                    1.500         TR
        5         92.00000          1                    1.500         TR
        6         91.00000          1                    1.500         TR
        7         91.00000          1                    1.500         TR
        8         91.00000          1                    1.500         TR
        9         92.00000          1                    1.500         TR
       10         91.00000          1                    1.500         TR
       11         91.00000          1                    1.500         TR
       12         91.00000          1                    1.500         TR

 TRANSIENT SIMULATION



 
 #STREAMFLOW Sample Problem--BAS File                                            
 #December 2009                                                                  
 THE FREE FORMAT OPTION HAS BEEN SELECTED



                     BOUNDARY ARRAY FOR LAYER   1
 READING ON UNIT   12 WITH FORMAT: (20I4)              

 AQUIFER HEAD WILL BE SET TO  0.0000     AT ALL NO-FLOW NODES (IBOUND=0).



                       INITIAL HEAD FOR LAYER   1
 READING ON UNIT   12 WITH FORMAT: (10F13.0)           

 OUTPUT CONTROL IS SPECIFIED EVERY TIME STEP
 HEAD PRINT FORMAT CODE IS  19    DRAWDOWN PRINT FORMAT CODE IS   0
 HEADS WILL BE SAVED ON UNIT   10    DRAWDOWNS WILL BE SAVED ON UNIT   10

 BCF -- BLOCK-CENTERED FLOW PACKAGE, VERSION 7, 5/2/2005
         INPUT READ FROM UNIT 13
 TRANSIENT SIMULATION
 HEAD AT CELLS THAT CONVERT TO DRY=   0.0000    
 WETTING CAPABILITY IS NOT ACTIVE
      LAYER  LAYER-TYPE CODE     INTERBLOCK T
      --------------------------------------------
         1            0          0 -- HARMONIC    

 COLUMN TO ROW ANISOTROPY =   1.00000    

     PRIMARY STORAGE COEF =  5.000000E-02 FOR LAYER   1

     TRANSMIS. ALONG ROWS =   5000.00     FOR LAYER   1

 RCH -- RECHARGE PACKAGE, VERSION 7, 5/2/2005 INPUT READ FROM UNIT   15
 #STREAMFLOW Sample Problem--RCH File
 #December 2009
 No named parameters
 OPTION 1 -- RECHARGE TO TOP LAYER


     0 Recharge parameters

 SFR7 -- STREAMFLOW ROUTING PACKAGE, VERSION 7.1.02, 06/29/2009
         INPUT READ FROM UNIT  16
 #STREAMFLOW Sample Problem--SFR File
 #December 2009


 NUMBER OF STREAM REACHES IS   40

 NUMBER OF STREAM SEGMENTS IS    3

 NUMBER OF STREAM PARAMETERS IS    0

 NUMBER OF STREAM SEGMENTS DEFINED USING PARAMETERS IS    0

 MAXIMUM ERROR FOR STREAM LEAKAGE RATES IS  1.00E-04

 CONSTANT FOR MANNINGS EQUATION IS  1.2839E+05



 STREAM OUTPUT WILL BE WRITTEN TO FILE ON UNIT  81


   STREAM NETWORK DESCRIPTION: 

   LAYER    ROW    COL   SEGMENT   REACH     LENGTH
                          NUMBER   NUMBER    IN CELL
   --------------------------------------------------
      1     13      1       1        1    2.0000E+02
      1     13      2       1        2    2.0000E+02
      1     14      3       1        3    2.0000E+02
      1     15      4       1        4    2.0000E+02
      1     16      5       1        5    2.0000E+02
      1     16      6       1        6    2.0000E+02
      1     16      7       1        7    2.0000E+02
      1     16      8       1        8    2.0000E+02
      1     16      9       1        9    2.0000E+02
      1     16     10       1       10    2.0000E+02
      1     16     11       1       11    2.0000E+02
      1     16     12       1       12    2.0000E+02
      1     15     13       1       13    2.0000E+02
      1     14     14       1       14    2.0000E+02
      1     13     15       1       15    2.0000E+02
      1     12     16       1       16    2.0000E+02
      1     12     17       1       17    2.0000E+02
      1     12     18       1       18    2.0000E+02
      1     12     19       1       19    2.0000E+02
      1     13     20       1       20    2.0000E+02
      1     14     21       1       21    2.0000E+02
      1     14     22       1       22    2.0000E+02
      1      9     30       2        1    2.0000E+02
      1      9     29       2        2    2.0000E+02
      1      9     28       2        3    2.0000E+02
      1      9     27       2        4    2.0000E+02
      1     10     26       2        5    2.0000E+02
      1     11     25       2        6    2.0000E+02
      1     12     24       2        7    2.0000E+02
      1     13     23       2        8    2.0000E+02
      1     14     22       2        9    2.0000E+02
      1     14     22       3        1    2.0000E+02
      1     15     23       3        2    2.0000E+02
      1     15     24       3        3    2.0000E+02
      1     15     25       3        4    2.0000E+02
      1     15     26       3        5    2.0000E+02
      1     16     27       3        6    2.0000E+02
      1     17     28       3        7    2.0000E+02
      1     18     29       3        8    2.0000E+02
      1     18     30       3        9    2.0000E+02



1
                            STRESS PERIOD NO.    1, LENGTH =   92.00000    
                            -----------------------------------------------

                              NUMBER OF TIME STEPS =     1

                               MULTIPLIER FOR DELT =     1.500

                            INITIAL TIME STEP SIZE =   92.00000    

                 RECHARGE =  5.000000E-04



 CLASSIFICATION & COUNT OF STREAM SEGMENTS BASED ON SOURCE OF INFLOW:

                HEADWATER     DIVERSION     RECEIVES TRIBUTARY FLOW
                ---------     ---------     -----------------------
                     2              0               1



                    INPUT DATA FOR EACH STREAM SEGMENT
 ---------------------------------------------------------------------------------------------

 SEGMENT    SEG.     INFLOW   OVERLAND   STREAM    STREAM   ICALC  OUTFLOW  DIVERSION PRIORITY
    NO.    LENGTH     RATE     RUNOFF      ET       PPT.    METH.  TO SEG.  FROM SEG.    NO.

      1  4.400E+03 1.000E+05 0.000E+00 0.000E+00 0.000E+00    1        3        0        0
      2  1.800E+03 5.000E+04 0.000E+00 0.000E+00 0.000E+00    1        3        0        0
      3  1.800E+03 0.000E+00 0.000E+00 0.000E+00 0.000E+00    1        0        0        0


         STREAMBED PROPERTIES AND STREAM DIMENSIONS

 SEGMENT     BED HYD. COND.      BED THICKNESS     ELEV.-TOP OF BED     WIDTH OF STREAM     DEPTH OF STREAM    STREAM ROUGHNESS
    No.     UPPER     LOWER     UPPER     LOWER     UPPER     LOWER     UPPER     LOWER     UPPER     LOWER   CHANNEL      BANK

     1  5.000E+00 5.000E+00 1.000E+00 1.000E+00 4.850E+01 3.800E+01 2.000E+01 2.000E+01                     5.000E-02
     2  5.000E+00 5.000E+00 1.000E+00 1.000E+00 4.025E+01 3.800E+01 2.000E+01 2.000E+01                     5.000E-02
     3  5.000E+00 5.000E+00 1.000E+00 1.000E+00 3.800E+01 3.000E+01 2.000E+01 2.000E+01                     5.000E-02



 
 SOLVING FOR HEAD 


     7 CALLS TO PCG ROUTINE FOR TIME STEP   1 IN STRESS PERIOD    1
    28 TOTAL ITERATIONS

 HEAD/DRAWDOWN PRINTOUT FLAG = 1     TOTAL BUDGET PRINTOUT FLAG = 1
 CELL-BY-CELL FLOW TERM FLAG = 1

 OUTPUT FLAGS FOR ALL LAYERS ARE THE SAME:
   HEAD    DRAWDOWN  HEAD  DRAWDOWN
 PRINTOUT  PRINTOUT  SAVE    SAVE
 ----------------------------------
     0         0       0       0



 STREAM LISTING     PERIOD      1   STEP        1

 LAYER ROW COL. STREAM  RCH.  FLOW INTO     FLOW TO   FLOW OUT OF   OVRLND.     DIRECT     STREAM       STREAM     STREAM     STREAM   STREAMBED  STREAMBED
                SEG.NO.  NO.  STRM. RCH.    AQUIFER    STRM. RCH.    RUNOFF     PRECIP       ET          HEAD       DEPTH      WIDTH   CONDCTNC.   GRADIENT

   1   13    1     1     1    1.0000E+05 -3.1678E+04   1.3168E+05  0.000E+00  0.000E+00  0.000E+00  4.84194E+01  1.580E-01  2.000E+01  2.000E+04 -1.584E+00
   1   13    2     1     2    1.3168E+05 -4.2142E+04   1.7382E+05  0.000E+00  0.000E+00  0.000E+00  4.79706E+01  1.865E-01  2.000E+01  2.000E+04 -2.107E+00
   1   14    3     1     3    1.7382E+05 -3.7673E+04   2.1149E+05  0.000E+00  0.000E+00  0.000E+00  4.75212E+01  2.144E-01  2.000E+01  2.000E+04 -1.884E+00
   1   15    4     1     4    2.1149E+05 -3.6715E+04   2.4821E+05  0.000E+00  0.000E+00  0.000E+00  4.70679E+01  2.383E-01  2.000E+01  2.000E+04 -1.836E+00
   1   16    5     1     5    2.4821E+05 -3.7633E+04   2.8584E+05  0.000E+00  0.000E+00  0.000E+00  4.66130E+01  2.608E-01  2.000E+01  2.000E+04 -1.882E+00
   1   16    6     1     6    2.8584E+05 -3.2898E+04   3.1874E+05  0.000E+00  0.000E+00  0.000E+00  4.61559E+01  2.809E-01  2.000E+01  2.000E+04 -1.645E+00
   1   16    7     1     7    3.1874E+05 -3.2690E+04   3.5143E+05  0.000E+00  0.000E+00  0.000E+00  4.56966E+01  2.988E-01  2.000E+01  2.000E+04 -1.634E+00
   1   16    8     1     8    3.5143E+05 -3.2865E+04   3.8429E+05  0.000E+00  0.000E+00  0.000E+00  4.52365E+01  3.160E-01  2.000E+01  2.000E+04 -1.643E+00
   1   16    9     1     9    3.8429E+05 -3.2898E+04   4.1719E+05  0.000E+00  0.000E+00  0.000E+00  4.47759E+01  3.327E-01  2.000E+01  2.000E+04 -1.645E+00
   1   16   10     1    10    4.1719E+05 -3.2817E+04   4.5001E+05  0.000E+00  0.000E+00  0.000E+00  4.43147E+01  3.488E-01  2.000E+01  2.000E+04 -1.641E+00
   1   16   11     1    11    4.5001E+05 -3.3231E+04   4.8324E+05  0.000E+00  0.000E+00  0.000E+00  4.38531E+01  3.645E-01  2.000E+01  2.000E+04 -1.662E+00
   1   16   12     1    12    4.8324E+05 -3.8548E+04   5.2179E+05  0.000E+00  0.000E+00  0.000E+00  4.33924E+01  3.811E-01  2.000E+01  2.000E+04 -1.927E+00
   1   15   13     1    13    5.2179E+05 -3.7343E+04   5.5913E+05  0.000E+00  0.000E+00  0.000E+00  4.29322E+01  3.981E-01  2.000E+01  2.000E+04 -1.867E+00
   1   14   14     1    14    5.5913E+05 -3.7747E+04   5.9688E+05  0.000E+00  0.000E+00  0.000E+00  4.24713E+01  4.145E-01  2.000E+01  2.000E+04 -1.887E+00
   1   13   15     1    15    5.9688E+05 -4.0103E+04   6.3698E+05  0.000E+00  0.000E+00  0.000E+00  4.20105E+01  4.310E-01  2.000E+01  2.000E+04 -2.005E+00
   1   12   16     1    16    6.3698E+05 -4.6760E+04   6.8374E+05  0.000E+00  0.000E+00  0.000E+00  4.15512E+01  4.489E-01  2.000E+01  2.000E+04 -2.338E+00
   1   12   17     1    17    6.8374E+05 -3.6328E+04   7.2007E+05  0.000E+00  0.000E+00  0.000E+00  4.10907E+01  4.657E-01  2.000E+01  2.000E+04 -1.816E+00
   1   12   18     1    18    7.2007E+05 -3.4697E+04   7.5476E+05  0.000E+00  0.000E+00  0.000E+00  4.06274E+01  4.797E-01  2.000E+01  2.000E+04 -1.735E+00
   1   12   19     1    19    7.5476E+05 -3.9429E+04   7.9419E+05  0.000E+00  0.000E+00  0.000E+00  4.01645E+01  4.940E-01  2.000E+01  2.000E+04 -1.971E+00
   1   13   20     1    20    7.9419E+05 -2.9022E+04   8.2322E+05  0.000E+00  0.000E+00  0.000E+00  3.97002E+01  5.070E-01  2.000E+01  2.000E+04 -1.451E+00
   1   14   21     1    21    8.2322E+05 -2.1382E+04   8.4460E+05  0.000E+00  0.000E+00  0.000E+00  3.92323E+01  5.164E-01  2.000E+01  2.000E+04 -1.069E+00
   1   14   22     1    22    8.4460E+05 -2.6769E+03   8.4728E+05  0.000E+00  0.000E+00  0.000E+00  3.87595E+01  5.209E-01  2.000E+01  2.000E+04 -1.338E-01
   1    9   30     2     1    5.0000E+04 -2.9666E+04   7.9666E+04  0.000E+00  0.000E+00  0.000E+00  4.02604E+01  1.354E-01  2.000E+01  2.000E+04 -1.483E+00
   1    9   29     2     2    7.9666E+04 -3.2106E+04   1.1177E+05  0.000E+00  0.000E+00  0.000E+00  4.00461E+01  1.711E-01  2.000E+01  2.000E+04 -1.605E+00
   1    9   28     2     3    1.1177E+05 -3.6429E+04   1.4820E+05  0.000E+00  0.000E+00  0.000E+00  3.98305E+01  2.055E-01  2.000E+01  2.000E+04 -1.821E+00
   1    9   27     2     4    1.4820E+05 -5.1061E+04   1.9926E+05  0.000E+00  0.000E+00  0.000E+00  3.96196E+01  2.446E-01  2.000E+01  2.000E+04 -2.553E+00
   1   10   26     2     5    1.9926E+05 -3.7464E+04   2.3673E+05  0.000E+00  0.000E+00  0.000E+00  3.94053E+01  2.803E-01  2.000E+01  2.000E+04 -1.873E+00
   1   11   25     2     6    2.3673E+05 -2.9059E+04   2.6579E+05  0.000E+00  0.000E+00  0.000E+00  3.91802E+01  3.052E-01  2.000E+01  2.000E+04 -1.453E+00
   1   12   24     2     7    2.6579E+05 -2.2068E+04   2.8785E+05  0.000E+00  0.000E+00  0.000E+00  3.89485E+01  3.235E-01  2.000E+01  2.000E+04 -1.103E+00
   1   13   23     2     8    2.8785E+05 -1.5940E+04   3.0379E+05  0.000E+00  0.000E+00  0.000E+00  3.87117E+01  3.367E-01  2.000E+01  2.000E+04 -7.970E-01
   1   14   22     2     9    3.0379E+05 -8.4684E+03   3.1226E+05  0.000E+00  0.000E+00  0.000E+00  3.84699E+01  3.449E-01  2.000E+01  2.000E+04 -4.234E-01
   1   14   22     3     1    1.1595E+06 -1.6267E+04   1.1758E+06  0.000E+00  0.000E+00  0.000E+00  3.80800E+01  5.244E-01  2.000E+01  2.000E+04 -8.134E-01
   1   15   23     3     2    1.1758E+06 -2.5916E+04   1.2017E+06  0.000E+00  0.000E+00  0.000E+00  3.71968E+01  5.301E-01  2.000E+01  2.000E+04 -1.296E+00
   1   15   24     3     3    1.2017E+06 -2.2006E+04   1.2237E+06  0.000E+00  0.000E+00  0.000E+00  3.63143E+01  5.365E-01  2.000E+01  2.000E+04 -1.100E+00
   1   15   25     3     4    1.2237E+06 -2.1891E+04   1.2456E+06  0.000E+00  0.000E+00  0.000E+00  3.54312E+01  5.423E-01  2.000E+01  2.000E+04 -1.095E+00
   1   15   26     3     5    1.2456E+06 -2.5403E+04   1.2710E+06  0.000E+00  0.000E+00  0.000E+00  3.45485E+01  5.485E-01  2.000E+01  2.000E+04 -1.270E+00
   1   16   27     3     6    1.2710E+06 -3.3080E+04   1.3041E+06  0.000E+00  0.000E+00  0.000E+00  3.36672E+01  5.561E-01  2.000E+01  2.000E+04 -1.654E+00
   1   17   28     3     7    1.3041E+06 -4.0109E+04   1.3442E+06  0.000E+00  0.000E+00  0.000E+00  3.27878E+01  5.655E-01  2.000E+01  2.000E+04 -2.005E+00
   1   18   29     3     8    1.3442E+06 -5.0587E+04   1.3948E+06  0.000E+00  0.000E+00  0.000E+00  3.19104E+01  5.771E-01  2.000E+01  2.000E+04 -2.529E+00
   1   18   30     3     9    1.3948E+06 -4.6639E+04   1.4414E+06  0.000E+00  0.000E+00  0.000E+00  3.10337E+01  5.893E-01  2.000E+01  2.000E+04 -2.332E+00



1
  VOLUMETRIC BUDGET FOR ENTIRE MODEL AT END OF TIME STEP  1 IN STRESS PERIOD   1
  ------------------------------------------------------------------------------

     CUMULATIVE VOLUMES      L**3       RATES FOR THIS TIME STEP      L**3/T
     ------------------                 ------------------------

           IN:                                      IN:
           ---                                      ---
             STORAGE =    18999127.4139               STORAGE =      206512.2545
       CONSTANT HEAD =   101303144.9924         CONSTANT HEAD =     1101121.1412
            RECHARGE =     1269600.0000              RECHARGE =       13800.0000
      STREAM LEAKAGE =           0.0000        STREAM LEAKAGE =           0.0000
        MANAGED FLOW =           0.0000          MANAGED FLOW =           0.0000

            TOTAL IN =   121571872.4064              TOTAL IN =     1321433.3957

          OUT:                                     OUT:
          ----                                     ----
             STORAGE =           0.0000               STORAGE =           0.0000
       CONSTANT HEAD =           0.0000         CONSTANT HEAD =           0.0000
            RECHARGE =           0.0000              RECHARGE =           0.0000
      STREAM LEAKAGE =   118811900.8039        STREAM LEAKAGE =     1291433.7044
        MANAGED FLOW =     2760000.0000          MANAGED FLOW =       30000.0000

           TOTAL OUT =   121571900.8039             TOTAL OUT =     1321433.7044

            IN - OUT =         -28.3975              IN - OUT =          -0.3087

 PERCENT DISCREPANCY =           0.00     PERCENT DISCREPANCY =           0.00






          TIME SUMMARY AT END OF TIME STEP   1 IN STRESS PERIOD    1
                    SECONDS     MINUTES      HOURS       DAYS        YEARS
                    -----------------------------------------------------------
   TIME STEP LENGTH 7.94880E+06 1.32480E+05  2208.0      92.000     0.25188    
 STRESS PERIOD TIME 7.94880E+06 1.32480E+05  2208.0      92.000     0.25188    
         TOTAL TIME 7.94880E+06 1.32480E+05  2208.0      92.000     0.25188    
1
1
                            STRESS PERIOD NO.    2, LENGTH =   91.00000    
                            -----------------------------------------------

                              NUMBER OF TIME STEPS =     1

                               MULTIPLIER FOR DELT =     1.500

                            INITIAL TIME STEP SIZE =   91.00000    

                 RECHARGE =  2.000000E-03

 REUSING STREAM SEGMENT DATA FROM LAST STRESS PERIOD
 
 SOLVING FOR HEAD 


     6 CALLS TO PCG ROUTINE FOR TIME STEP   1 IN STRESS PERIOD    2
    22 TOTAL ITERATIONS

 HEAD/DRAWDOWN PRINTOUT FLAG = 1     TOTAL BUDGET PRINTOUT FLAG = 1
 CELL-BY-CELL FLOW TERM FLAG = 1

 OUTPUT FLAGS FOR ALL LAYERS ARE THE SAME:
   HEAD    DRAWDOWN  HEAD  DRAWDOWN
 PRINTOUT  PRINTOUT  SAVE    SAVE
 ----------------------------------
     0         0       0       0



 STREAM LISTING     PERIOD      2   STEP        1

 LAYER ROW COL. STREAM  RCH.  FLOW INTO     FLOW TO   FLOW OUT OF   OVRLND.     DIRECT     STREAM       STREAM     STREAM     STREAM   STREAMBED  STREAMBED
                SEG.NO.  NO.  STRM. RCH.    AQUIFER    STRM. RCH.    RUNOFF     PRECIP       ET          HEAD       DEPTH      WIDTH   CONDCTNC.   GRADIENT

   1   13    1     1     1    1.0000E+05 -2.8558E+04   1.2856E+05  0.000E+00  0.000E+00  0.000E+00  4.84181E+01  1.567E-01  2.000E+01  2.000E+04 -1.428E+00
   1   13    2     1     2    1.2856E+05 -3.8456E+04   1.6701E+05  0.000E+00  0.000E+00  0.000E+00  4.79669E+01  1.829E-01  2.000E+01  2.000E+04 -1.923E+00
   1   14    3     1     3    1.6701E+05 -3.3894E+04   2.0091E+05  0.000E+00  0.000E+00  0.000E+00  4.75153E+01  2.085E-01  2.000E+01  2.000E+04 -1.695E+00
   1   15    4     1     4    2.0091E+05 -3.3085E+04   2.3399E+05  0.000E+00  0.000E+00  0.000E+00  4.70601E+01  2.305E-01  2.000E+01  2.000E+04 -1.654E+00
   1   16    5     1     5    2.3399E+05 -3.4511E+04   2.6850E+05  0.000E+00  0.000E+00  0.000E+00  4.66037E+01  2.514E-01  2.000E+01  2.000E+04 -1.726E+00
   1   16    6     1     6    2.6850E+05 -3.0163E+04   2.9867E+05  0.000E+00  0.000E+00  0.000E+00  4.61454E+01  2.704E-01  2.000E+01  2.000E+04 -1.508E+00
   1   16    7     1     7    2.9867E+05 -2.9992E+04   3.2866E+05  0.000E+00  0.000E+00  0.000E+00  4.56849E+01  2.872E-01  2.000E+01  2.000E+04 -1.500E+00
   1   16    8     1     8    3.2866E+05 -3.0189E+04   3.5885E+05  0.000E+00  0.000E+00  0.000E+00  4.52239E+01  3.034E-01  2.000E+01  2.000E+04 -1.509E+00
   1   16    9     1     9    3.5885E+05 -3.0281E+04   3.8913E+05  0.000E+00  0.000E+00  0.000E+00  4.47624E+01  3.192E-01  2.000E+01  2.000E+04 -1.514E+00
   1   16   10     1    10    3.8913E+05 -3.0320E+04   4.1945E+05  0.000E+00  0.000E+00  0.000E+00  4.43004E+01  3.345E-01  2.000E+01  2.000E+04 -1.516E+00
   1   16   11     1    11    4.1945E+05 -3.0945E+04   4.5039E+05  0.000E+00  0.000E+00  0.000E+00  4.38381E+01  3.494E-01  2.000E+01  2.000E+04 -1.547E+00
   1   16   12     1    12    4.5039E+05 -3.6575E+04   4.8697E+05  0.000E+00  0.000E+00  0.000E+00  4.33768E+01  3.655E-01  2.000E+01  2.000E+04 -1.829E+00
   1   15   13     1    13    4.8697E+05 -3.5405E+04   5.2237E+05  0.000E+00  0.000E+00  0.000E+00  4.29161E+01  3.821E-01  2.000E+01  2.000E+04 -1.770E+00
   1   14   14     1    14    5.2237E+05 -3.6024E+04   5.5840E+05  0.000E+00  0.000E+00  0.000E+00  4.24549E+01  3.981E-01  2.000E+01  2.000E+04 -1.801E+00
   1   13   15     1    15    5.5840E+05 -3.8247E+04   5.9665E+05  0.000E+00  0.000E+00  0.000E+00  4.19938E+01  4.143E-01  2.000E+01  2.000E+04 -1.912E+00
   1   12   16     1    16    5.9665E+05 -4.4278E+04   6.4092E+05  0.000E+00  0.000E+00  0.000E+00  4.15340E+01  4.318E-01  2.000E+01  2.000E+04 -2.214E+00
   1   12   17     1    17    6.4092E+05 -3.4626E+04   6.7555E+05  0.000E+00  0.000E+00  0.000E+00  4.10731E+01  4.481E-01  2.000E+01  2.000E+04 -1.731E+00
   1   12   18     1    18    6.7555E+05 -3.2947E+04   7.0850E+05  0.000E+00  0.000E+00  0.000E+00  4.06095E+01  4.617E-01  2.000E+01  2.000E+04 -1.647E+00
   1   12   19     1    19    7.0850E+05 -3.7012E+04   7.4551E+05  0.000E+00  0.000E+00  0.000E+00  4.01461E+01  4.756E-01  2.000E+01  2.000E+04 -1.851E+00
   1   13   20     1    20    7.4551E+05 -2.7154E+04   7.7266E+05  0.000E+00  0.000E+00  0.000E+00  3.96813E+01  4.881E-01  2.000E+01  2.000E+04 -1.358E+00
   1   14   21     1    21    7.7266E+05 -1.9879E+04   7.9254E+05  0.000E+00  0.000E+00  0.000E+00  3.92130E+01  4.971E-01  2.000E+01  2.000E+04 -9.940E-01
   1   14   22     1    22    7.9254E+05 -1.1811E+03   7.9372E+05  0.000E+00  0.000E+00  0.000E+00  3.87397E+01  5.011E-01  2.000E+01  2.000E+04 -5.906E-02
   1    9   30     2     1    5.0000E+04 -2.6565E+04   7.6565E+04  0.000E+00  0.000E+00  0.000E+00  4.02585E+01  1.335E-01  2.000E+01  2.000E+04 -1.328E+00
   1    9   29     2     2    7.6565E+04 -2.9012E+04   1.0558E+05  0.000E+00  0.000E+00  0.000E+00  4.00410E+01  1.660E-01  2.000E+01  2.000E+04 -1.451E+00
   1    9   28     2     3    1.0558E+05 -3.3284E+04   1.3886E+05  0.000E+00  0.000E+00  0.000E+00  3.98231E+01  1.981E-01  2.000E+01  2.000E+04 -1.664E+00
   1    9   27     2     4    1.3886E+05 -4.7479E+04   1.8634E+05  0.000E+00  0.000E+00  0.000E+00  3.96101E+01  2.351E-01  2.000E+01  2.000E+04 -2.374E+00
   1   10   26     2     5    1.8634E+05 -3.2753E+04   2.1909E+05  0.000E+00  0.000E+00  0.000E+00  3.93934E+01  2.684E-01  2.000E+01  2.000E+04 -1.638E+00
   1   11   25     2     6    2.1909E+05 -2.3047E+04   2.4214E+05  0.000E+00  0.000E+00  0.000E+00  3.91649E+01  2.899E-01  2.000E+01  2.000E+04 -1.152E+00
   1   12   24     2     7    2.4214E+05 -1.5108E+04   2.5725E+05  0.000E+00  0.000E+00  0.000E+00  3.89291E+01  3.041E-01  2.000E+01  2.000E+04 -7.554E-01
   1   13   23     2     8    2.5725E+05 -1.0336E+04   2.6758E+05  0.000E+00  0.000E+00  0.000E+00  3.86883E+01  3.133E-01  2.000E+01  2.000E+04 -5.168E-01
   1   14   22     2     9    2.6758E+05 -7.0859E+03   2.7467E+05  0.000E+00  0.000E+00  0.000E+00  3.84445E+01  3.195E-01  2.000E+01  2.000E+04 -3.543E-01
   1   14   22     3     1    1.0684E+06 -1.4879E+04   1.0833E+06  0.000E+00  0.000E+00  0.000E+00  3.80548E+01  4.993E-01  2.000E+01  2.000E+04 -7.440E-01
   1   15   23     3     2    1.0833E+06 -2.2178E+04   1.1055E+06  0.000E+00  0.000E+00  0.000E+00  3.71711E+01  5.044E-01  2.000E+01  2.000E+04 -1.109E+00
   1   15   24     3     3    1.1055E+06 -1.5140E+04   1.1206E+06  0.000E+00  0.000E+00  0.000E+00  3.62873E+01  5.096E-01  2.000E+01  2.000E+04 -7.570E-01
   1   15   25     3     4    1.1206E+06 -9.2865E+03   1.1299E+06  0.000E+00  0.000E+00  0.000E+00  3.54018E+01  5.129E-01  2.000E+01  2.000E+04 -4.643E-01
   1   15   26     3     5    1.1299E+06 -1.6557E+04   1.1464E+06  0.000E+00  0.000E+00  0.000E+00  3.45164E+01  5.164E-01  2.000E+01  2.000E+04 -8.279E-01
   1   16   27     3     6    1.1464E+06 -2.7871E+04   1.1743E+06  0.000E+00  0.000E+00  0.000E+00  3.36336E+01  5.225E-01  2.000E+01  2.000E+04 -1.394E+00
   1   17   28     3     7    1.1743E+06 -3.6004E+04   1.2103E+06  0.000E+00  0.000E+00  0.000E+00  3.27533E+01  5.310E-01  2.000E+01  2.000E+04 -1.800E+00
   1   18   29     3     8    1.2103E+06 -4.7434E+04   1.2577E+06  0.000E+00  0.000E+00  0.000E+00  3.18755E+01  5.421E-01  2.000E+01  2.000E+04 -2.372E+00
   1   18   30     3     9    1.2577E+06 -4.3818E+04   1.3016E+06  0.000E+00  0.000E+00  0.000E+00  3.09985E+01  5.541E-01  2.000E+01  2.000E+04 -2.191E+00



1
  VOLUMETRIC BUDGET FOR ENTIRE MODEL AT END OF TIME STEP  1 IN STRESS PERIOD   2
  ------------------------------------------------------------------------------

     CUMULATIVE VOLUMES      L**3       RATES FOR THIS TIME STEP      L**3/T
     ------------------                 ------------------------

           IN:                                      IN:
           ---                                      ---
             STORAGE =    19608232.5874               STORAGE =        6693.4634
       CONSTANT HEAD =   204580633.7123         CONSTANT HEAD =     1134917.4585
            RECHARGE =     6292800.0000              RECHARGE =       55200.0000
      STREAM LEAKAGE =           0.0000        STREAM LEAKAGE =           0.0000
        MANAGED FLOW =           0.0000          MANAGED FLOW =           0.0000

            TOTAL IN =   230481666.2997              TOTAL IN =     1196810.9219

          OUT:                                     OUT:
          ----                                     ----
             STORAGE =       22694.1557               STORAGE =         249.3863
       CONSTANT HEAD =           0.0000         CONSTANT HEAD =           0.0000
            RECHARGE =           0.0000              RECHARGE =           0.0000
      STREAM LEAKAGE =   223604015.1132        STREAM LEAKAGE =     1151561.6957
        MANAGED FLOW =     6855000.0000          MANAGED FLOW =       45000.0000

           TOTAL OUT =   230481709.2689             TOTAL OUT =     1196811.0820

            IN - OUT =         -42.9692              IN - OUT =          -0.1601

 PERCENT DISCREPANCY =           0.00     PERCENT DISCREPANCY =           0.00






          TIME SUMMARY AT END OF TIME STEP   1 IN STRESS PERIOD    2
                    SECONDS     MINUTES      HOURS       DAYS        YEARS
                    -----------------------------------------------------------
   TIME STEP LENGTH 7.86240E+06 1.31040E+05  2184.0      91.000     0.24914    
 STRESS PERIOD TIME 7.86240E+06 1.31040E+05  2184.0      91.000     0.24914    
         TOTAL TIME 1.58112E+07 2.63520E+05  4392.0      183.00     0.50103    
1
1
                            STRESS PERIOD NO.    3, LENGTH =   91.00000    
                            -----------------------------------------------

                              NUMBER OF TIME STEPS =     1

                               MULTIPLIER FOR DELT =     1.500

                            INITIAL TIME STEP SIZE =   91.00000    

                 RECHARGE =   0.00000    

 REUSING STREAM SEGMENT DATA FROM LAST STRESS PERIOD
 
 SOLVING FOR HEAD 


     5 CALLS TO PCG ROUTINE FOR TIME STEP   1 IN STRESS PERIOD    3
    19 TOTAL ITERATIONS

 HEAD/DRAWDOWN PRINTOUT FLAG = 1     TOTAL BUDGET PRINTOUT FLAG = 1
 CELL-BY-CELL FLOW TERM FLAG = 1

 OUTPUT FLAGS FOR ALL LAYERS ARE THE SAME:
   HEAD    DRAWDOWN  HEAD  DRAWDOWN
 PRINTOUT  PRINTOUT  SAVE    SAVE
 ----------------------------------
     0         0       0       0



 STREAM LISTING     PERIOD      3   STEP        1

 LAYER ROW COL. STREAM  RCH.  FLOW INTO     FLOW TO   FLOW OUT OF   OVRLND.     DIRECT     STREAM       STREAM     STREAM     STREAM   STREAMBED  STREAMBED
                SEG.NO.  NO.  STRM. RCH.    AQUIFER    STRM. RCH.    RUNOFF     PRECIP       ET          HEAD       DEPTH      WIDTH   CONDCTNC.   GRADIENT

   1   13    1     1     1    1.0000E+05 -2.7523E+04   1.2752E+05  0.000E+00  0.000E+00  0.000E+00  4.84177E+01  1.563E-01  2.000E+01  2.000E+04 -1.376E+00
   1   13    2     1     2    1.2752E+05 -3.7210E+04   1.6473E+05  0.000E+00  0.000E+00  0.000E+00  4.79657E+01  1.816E-01  2.000E+01  2.000E+04 -1.861E+00
   1   14    3     1     3    1.6473E+05 -3.2688E+04   1.9742E+05  0.000E+00  0.000E+00  0.000E+00  4.75134E+01  2.066E-01  2.000E+01  2.000E+04 -1.634E+00
   1   15    4     1     4    1.9742E+05 -3.1932E+04   2.2935E+05  0.000E+00  0.000E+00  0.000E+00  4.70575E+01  2.279E-01  2.000E+01  2.000E+04 -1.597E+00
   1   16    5     1     5    2.2935E+05 -3.3478E+04   2.6283E+05  0.000E+00  0.000E+00  0.000E+00  4.66006E+01  2.483E-01  2.000E+01  2.000E+04 -1.674E+00
   1   16    6     1     6    2.6283E+05 -2.9256E+04   2.9209E+05  0.000E+00  0.000E+00  0.000E+00  4.61418E+01  2.668E-01  2.000E+01  2.000E+04 -1.463E+00
   1   16    7     1     7    2.9209E+05 -2.9082E+04   3.2117E+05  0.000E+00  0.000E+00  0.000E+00  4.56811E+01  2.833E-01  2.000E+01  2.000E+04 -1.454E+00
   1   16    8     1     8    3.2117E+05 -2.9263E+04   3.5043E+05  0.000E+00  0.000E+00  0.000E+00  4.52197E+01  2.992E-01  2.000E+01  2.000E+04 -1.463E+00
   1   16    9     1     9    3.5043E+05 -2.9335E+04   3.7977E+05  0.000E+00  0.000E+00  0.000E+00  4.47578E+01  3.146E-01  2.000E+01  2.000E+04 -1.467E+00
   1   16   10     1    10    3.7977E+05 -2.9340E+04   4.0911E+05  0.000E+00  0.000E+00  0.000E+00  4.42955E+01  3.295E-01  2.000E+01  2.000E+04 -1.467E+00
   1   16   11     1    11    4.0911E+05 -2.9877E+04   4.3898E+05  0.000E+00  0.000E+00  0.000E+00  4.38328E+01  3.442E-01  2.000E+01  2.000E+04 -1.494E+00
   1   16   12     1    12    4.3898E+05 -3.5125E+04   4.7411E+05  0.000E+00  0.000E+00  0.000E+00  4.33711E+01  3.598E-01  2.000E+01  2.000E+04 -1.756E+00
   1   15   13     1    13    4.7411E+05 -3.3644E+04   5.0775E+05  0.000E+00  0.000E+00  0.000E+00  4.29099E+01  3.758E-01  2.000E+01  2.000E+04 -1.682E+00
   1   14   14     1    14    5.0775E+05 -3.4082E+04   5.4183E+05  0.000E+00  0.000E+00  0.000E+00  4.24479E+01  3.911E-01  2.000E+01  2.000E+04 -1.704E+00
   1   13   15     1    15    5.4183E+05 -3.6360E+04   5.7819E+05  0.000E+00  0.000E+00  0.000E+00  4.19862E+01  4.067E-01  2.000E+01  2.000E+04 -1.818E+00
   1   12   16     1    16    5.7819E+05 -4.2714E+04   6.2091E+05  0.000E+00  0.000E+00  0.000E+00  4.15259E+01  4.237E-01  2.000E+01  2.000E+04 -2.136E+00
   1   12   17     1    17    6.2091E+05 -3.3241E+04   6.5415E+05  0.000E+00  0.000E+00  0.000E+00  4.10646E+01  4.396E-01  2.000E+01  2.000E+04 -1.662E+00
   1   12   18     1    18    6.5415E+05 -3.1642E+04   6.8579E+05  0.000E+00  0.000E+00  0.000E+00  4.06006E+01  4.529E-01  2.000E+01  2.000E+04 -1.582E+00
   1   12   19     1    19    6.8579E+05 -3.5711E+04   7.2150E+05  0.000E+00  0.000E+00  0.000E+00  4.01368E+01  4.664E-01  2.000E+01  2.000E+04 -1.786E+00
   1   13   20     1    20    7.2150E+05 -2.5727E+04   7.4723E+05  0.000E+00  0.000E+00  0.000E+00  3.96717E+01  4.785E-01  2.000E+01  2.000E+04 -1.286E+00
   1   14   21     1    21    7.4723E+05 -1.8578E+04   7.6581E+05  0.000E+00  0.000E+00  0.000E+00  3.92030E+01  4.871E-01  2.000E+01  2.000E+04 -9.289E-01
   1   14   22     1    22    7.6581E+05 -7.3931E+02   7.6655E+05  0.000E+00  0.000E+00  0.000E+00  3.87295E+01  4.908E-01  2.000E+01  2.000E+04 -3.697E-02
   1    9   30     2     1    5.0000E+04 -2.5824E+04   7.5824E+04  0.000E+00  0.000E+00  0.000E+00  4.02580E+01  1.330E-01  2.000E+01  2.000E+04 -1.291E+00
   1    9   29     2     2    7.5824E+04 -2.8269E+04   1.0409E+05  0.000E+00  0.000E+00  0.000E+00  4.00398E+01  1.648E-01  2.000E+01  2.000E+04 -1.413E+00
   1    9   28     2     3    1.0409E+05 -3.2512E+04   1.3660E+05  0.000E+00  0.000E+00  0.000E+00  3.98213E+01  1.963E-01  2.000E+01  2.000E+04 -1.626E+00
   1    9   27     2     4    1.3660E+05 -4.6537E+04   1.8314E+05  0.000E+00  0.000E+00  0.000E+00  3.96077E+01  2.327E-01  2.000E+01  2.000E+04 -2.327E+00
   1   10   26     2     5    1.8314E+05 -3.1677E+04   2.1482E+05  0.000E+00  0.000E+00  0.000E+00  3.93904E+01  2.654E-01  2.000E+01  2.000E+04 -1.584E+00
   1   11   25     2     6    2.1482E+05 -2.1836E+04   2.3666E+05  0.000E+00  0.000E+00  0.000E+00  3.91612E+01  2.862E-01  2.000E+01  2.000E+04 -1.092E+00
   1   12   24     2     7    2.3666E+05 -1.3828E+04   2.5048E+05  0.000E+00  0.000E+00  0.000E+00  3.89246E+01  2.996E-01  2.000E+01  2.000E+04 -6.914E-01
   1   13   23     2     8    2.5048E+05 -9.2593E+03   2.5974E+05  0.000E+00  0.000E+00  0.000E+00  3.86830E+01  3.080E-01  2.000E+01  2.000E+04 -4.630E-01
   1   14   22     2     9    2.5974E+05 -6.5537E+03   2.6630E+05  0.000E+00  0.000E+00  0.000E+00  3.84387E+01  3.137E-01  2.000E+01  2.000E+04 -3.277E-01
   1   14   22     3     1    1.0328E+06 -1.4432E+04   1.0473E+06  0.000E+00  0.000E+00  0.000E+00  3.80448E+01  4.893E-01  2.000E+01  2.000E+04 -7.216E-01
   1   15   23     3     2    1.0473E+06 -2.0996E+04   1.0683E+06  0.000E+00  0.000E+00  0.000E+00  3.71609E+01  4.942E-01  2.000E+01  2.000E+04 -1.050E+00
   1   15   24     3     3    1.0683E+06 -1.3870E+04   1.0821E+06  0.000E+00  0.000E+00  0.000E+00  3.62769E+01  4.991E-01  2.000E+01  2.000E+04 -6.935E-01
   1   15   25     3     4    1.0821E+06 -7.4454E+03   1.0896E+06  0.000E+00  0.000E+00  0.000E+00  3.53910E+01  5.021E-01  2.000E+01  2.000E+04 -3.723E-01
   1   15   26     3     5    1.0896E+06 -1.5134E+04   1.1047E+06  0.000E+00  0.000E+00  0.000E+00  3.45052E+01  5.052E-01  2.000E+01  2.000E+04 -7.567E-01
   1   16   27     3     6    1.1047E+06 -2.6762E+04   1.1315E+06  0.000E+00  0.000E+00  0.000E+00  3.36221E+01  5.110E-01  2.000E+01  2.000E+04 -1.338E+00
   1   17   28     3     7    1.1315E+06 -3.5014E+04   1.1665E+06  0.000E+00  0.000E+00  0.000E+00  3.27416E+01  5.194E-01  2.000E+01  2.000E+04 -1.751E+00
   1   18   29     3     8    1.1665E+06 -4.6572E+04   1.2131E+06  0.000E+00  0.000E+00  0.000E+00  3.18637E+01  5.304E-01  2.000E+01  2.000E+04 -2.329E+00
   1   18   30     3     9    1.2131E+06 -4.3106E+04   1.2562E+06  0.000E+00  0.000E+00  0.000E+00  3.09867E+01  5.423E-01  2.000E+01  2.000E+04 -2.155E+00



1
  VOLUMETRIC BUDGET FOR ENTIRE MODEL AT END OF TIME STEP  1 IN STRESS PERIOD   3
  ------------------------------------------------------------------------------

     CUMULATIVE VOLUMES      L**3       RATES FOR THIS TIME STEP      L**3/T
     ------------------                 ------------------------

           IN:                                      IN:
           ---                                      ---
             STORAGE =    19935655.7810               STORAGE =        3598.0571
       CONSTANT HEAD =   310374948.3537         CONSTANT HEAD =     1162574.8862
            RECHARGE =     6292800.0000              RECHARGE =           0.0000
      STREAM LEAKAGE =           0.0000        STREAM LEAKAGE =           0.0000
        MANAGED FLOW =           0.0000          MANAGED FLOW =           0.0000

            TOTAL IN =   336603404.1347              TOTAL IN =     1166172.9432

          OUT:                                     OUT:
          ----                                     ----
             STORAGE =       22694.1557               STORAGE =           0.0000
       CONSTANT HEAD =           0.0000         CONSTANT HEAD =           0.0000
            RECHARGE =           0.0000              RECHARGE =           0.0000
      STREAM LEAKAGE =   324265788.0342        STREAM LEAKAGE =     1106173.3288
        MANAGED FLOW =    12315000.0000          MANAGED FLOW =       60000.0000

           TOTAL OUT =   336603482.1899             TOTAL OUT =     1166173.3288

            IN - OUT =         -78.0553              IN - OUT =          -0.3856

 PERCENT DISCREPANCY =           0.00     PERCENT DISCREPANCY =           0.00






          TIME SUMMARY AT END OF TIME STEP   1 IN STRESS PERIOD    3
                    SECONDS     MINUTES      HOURS       DAYS        YEARS
                    -----------------------------------------------------------
   TIME STEP LENGTH 7.86240E+06 1.31040E+05  2184.0      91.000     0.24914    
 STRESS PERIOD TIME 7.86240E+06 1.31040E+05  2184.0      91.000     0.24914    
         TOTAL TIME 2.36736E+07 3.94560E+05  6576.0      274.00     0.75017    
1
1
                            STRESS PERIOD NO.    4, LENGTH =   91.00000    
                            -----------------------------------------------

                              NUMBER OF TIME STEPS =     1

                               MULTIPLIER FOR DELT =     1.500

                            INITIAL TIME STEP SIZE =   91.00000    

                 RECHARGE =  1.000000E-03

 REUSING STREAM SEGMENT DATA FROM LAST STRESS PERIOD
 
 SOLVING FOR HEAD 


     5 CALLS TO PCG ROUTINE FOR TIME STEP   1 IN STRESS PERIOD    4
    18 TOTAL ITERATIONS

 HEAD/DRAWDOWN PRINTOUT FLAG = 1     TOTAL BUDGET PRINTOUT FLAG = 1
 CELL-BY-CELL FLOW TERM FLAG = 1

 OUTPUT FLAGS FOR ALL LAYERS ARE THE SAME:
   HEAD    DRAWDOWN  HEAD  DRAWDOWN
 PRINTOUT  PRINTOUT  SAVE    SAVE
 ----------------------------------
     0         0       0       0



 STREAM LISTING     PERIOD      4   STEP        1

 LAYER ROW COL. STREAM  RCH.  FLOW INTO     FLOW TO   FLOW OUT OF   OVRLND.     DIRECT     STREAM       STREAM     STREAM     STREAM   STREAMBED  STREAMBED
                SEG.NO.  NO.  STRM. RCH.    AQUIFER    STRM. RCH.    RUNOFF     PRECIP       ET          HEAD       DEPTH      WIDTH   CONDCTNC.   GRADIENT

   1   13    1     1     1    1.0000E+05 -2.7890E+04   1.2789E+05  0.000E+00  0.000E+00  0.000E+00  4.84178E+01  1.564E-01  2.000E+01  2.000E+04 -1.394E+00
   1   13    2     1     2    1.2789E+05 -3.7643E+04   1.6553E+05  0.000E+00  0.000E+00  0.000E+00  4.79661E+01  1.821E-01  2.000E+01  2.000E+04 -1.882E+00
   1   14    3     1     3    1.6553E+05 -3.3113E+04   1.9865E+05  0.000E+00  0.000E+00  0.000E+00  4.75141E+01  2.073E-01  2.000E+01  2.000E+04 -1.656E+00
   1   15    4     1     4    1.9865E+05 -3.2337E+04   2.3098E+05  0.000E+00  0.000E+00  0.000E+00  4.70584E+01  2.289E-01  2.000E+01  2.000E+04 -1.617E+00
   1   16    5     1     5    2.3098E+05 -3.3831E+04   2.6481E+05  0.000E+00  0.000E+00  0.000E+00  4.66017E+01  2.494E-01  2.000E+01  2.000E+04 -1.692E+00
   1   16    6     1     6    2.6481E+05 -2.9547E+04   2.9436E+05  0.000E+00  0.000E+00  0.000E+00  4.61431E+01  2.681E-01  2.000E+01  2.000E+04 -1.477E+00
   1   16    7     1     7    2.9436E+05 -2.9350E+04   3.2371E+05  0.000E+00  0.000E+00  0.000E+00  4.56824E+01  2.847E-01  2.000E+01  2.000E+04 -1.468E+00
   1   16    8     1     8    3.2371E+05 -2.9500E+04   3.5321E+05  0.000E+00  0.000E+00  0.000E+00  4.52211E+01  3.006E-01  2.000E+01  2.000E+04 -1.475E+00
   1   16    9     1     9    3.5321E+05 -2.9522E+04   3.8273E+05  0.000E+00  0.000E+00  0.000E+00  4.47593E+01  3.161E-01  2.000E+01  2.000E+04 -1.476E+00
   1   16   10     1    10    3.8273E+05 -2.9441E+04   4.1217E+05  0.000E+00  0.000E+00  0.000E+00  4.42970E+01  3.311E-01  2.000E+01  2.000E+04 -1.472E+00
   1   16   11     1    11    4.1217E+05 -2.9808E+04   4.4198E+05  0.000E+00  0.000E+00  0.000E+00  4.38343E+01  3.456E-01  2.000E+01  2.000E+04 -1.490E+00
   1   16   12     1    12    4.4198E+05 -3.4585E+04   4.7657E+05  0.000E+00  0.000E+00  0.000E+00  4.33724E+01  3.611E-01  2.000E+01  2.000E+04 -1.729E+00
   1   15   13     1    13    4.7657E+05 -3.2750E+04   5.0932E+05  0.000E+00  0.000E+00  0.000E+00  4.29108E+01  3.767E-01  2.000E+01  2.000E+04 -1.637E+00
   1   14   14     1    14    5.0932E+05 -3.2925E+04   5.4224E+05  0.000E+00  0.000E+00  0.000E+00  4.24484E+01  3.916E-01  2.000E+01  2.000E+04 -1.646E+00
   1   13   15     1    15    5.4224E+05 -3.5323E+04   5.7757E+05  0.000E+00  0.000E+00  0.000E+00  4.19862E+01  4.066E-01  2.000E+01  2.000E+04 -1.766E+00
   1   12   16     1    16    5.7757E+05 -4.2295E+04   6.1986E+05  0.000E+00  0.000E+00  0.000E+00  4.15256E+01  4.233E-01  2.000E+01  2.000E+04 -2.115E+00
   1   12   17     1    17    6.1986E+05 -3.2641E+04   6.5250E+05  0.000E+00  0.000E+00  0.000E+00  4.10640E+01  4.390E-01  2.000E+01  2.000E+04 -1.632E+00
   1   12   18     1    18    6.5250E+05 -3.1136E+04   6.8364E+05  0.000E+00  0.000E+00  0.000E+00  4.05998E+01  4.521E-01  2.000E+01  2.000E+04 -1.557E+00
   1   12   19     1    19    6.8364E+05 -3.5522E+04   7.1916E+05  0.000E+00  0.000E+00  0.000E+00  4.01359E+01  4.655E-01  2.000E+01  2.000E+04 -1.776E+00
   1   13   20     1    20    7.1916E+05 -2.5211E+04   7.4437E+05  0.000E+00  0.000E+00  0.000E+00  3.96707E+01  4.775E-01  2.000E+01  2.000E+04 -1.261E+00
   1   14   21     1    21    7.4437E+05 -1.8141E+04   7.6251E+05  0.000E+00  0.000E+00  0.000E+00  3.92018E+01  4.859E-01  2.000E+01  2.000E+04 -9.071E-01
   1   14   22     1    22    7.6251E+05 -1.4657E+03   7.6398E+05  0.000E+00  0.000E+00  0.000E+00  3.87283E+01  4.897E-01  2.000E+01  2.000E+04 -7.328E-02
   1    9   30     2     1    5.0000E+04 -2.6602E+04   7.6602E+04  0.000E+00  0.000E+00  0.000E+00  4.02585E+01  1.335E-01  2.000E+01  2.000E+04 -1.330E+00
   1    9   29     2     2    7.6602E+04 -2.9070E+04   1.0567E+05  0.000E+00  0.000E+00  0.000E+00  4.00411E+01  1.661E-01  2.000E+01  2.000E+04 -1.453E+00
   1    9   28     2     3    1.0567E+05 -3.3361E+04   1.3903E+05  0.000E+00  0.000E+00  0.000E+00  3.98232E+01  1.982E-01  2.000E+01  2.000E+04 -1.668E+00
   1    9   27     2     4    1.3903E+05 -4.7501E+04   1.8653E+05  0.000E+00  0.000E+00  0.000E+00  3.96103E+01  2.353E-01  2.000E+01  2.000E+04 -2.375E+00
   1   10   26     2     5    1.8653E+05 -3.3457E+04   2.1999E+05  0.000E+00  0.000E+00  0.000E+00  3.93938E+01  2.688E-01  2.000E+01  2.000E+04 -1.673E+00
   1   11   25     2     6    2.1999E+05 -2.5082E+04   2.4507E+05  0.000E+00  0.000E+00  0.000E+00  3.91664E+01  2.914E-01  2.000E+01  2.000E+04 -1.254E+00
   1   12   24     2     7    2.4507E+05 -1.8465E+04   2.6354E+05  0.000E+00  0.000E+00  0.000E+00  3.89325E+01  3.075E-01  2.000E+01  2.000E+04 -9.233E-01
   1   13   23     2     8    2.6354E+05 -1.3020E+04   2.7656E+05  0.000E+00  0.000E+00  0.000E+00  3.86937E+01  3.187E-01  2.000E+01  2.000E+04 -6.510E-01
   1   14   22     2     9    2.7656E+05 -7.0165E+03   2.8357E+05  0.000E+00  0.000E+00  0.000E+00  3.84508E+01  3.258E-01  2.000E+01  2.000E+04 -3.508E-01
   1   14   22     3     1    1.0476E+06 -1.5051E+04   1.0626E+06  0.000E+00  0.000E+00  0.000E+00  3.80490E+01  4.935E-01  2.000E+01  2.000E+04 -7.526E-01
   1   15   23     3     2    1.0626E+06 -2.2928E+04   1.0855E+06  0.000E+00  0.000E+00  0.000E+00  3.71655E+01  4.988E-01  2.000E+01  2.000E+04 -1.146E+00
   1   15   24     3     3    1.0855E+06 -1.9381E+04   1.1049E+06  0.000E+00  0.000E+00  0.000E+00  3.62824E+01  5.047E-01  2.000E+01  2.000E+04 -9.691E-01
   1   15   25     3     4    1.1049E+06 -1.9119E+04   1.1240E+06  0.000E+00  0.000E+00  0.000E+00  3.53989E+01  5.100E-01  2.000E+01  2.000E+04 -9.560E-01
   1   15   26     3     5    1.1240E+06 -2.1964E+04   1.1460E+06  0.000E+00  0.000E+00  0.000E+00  3.45156E+01  5.156E-01  2.000E+01  2.000E+04 -1.098E+00
   1   16   27     3     6    1.1460E+06 -2.9129E+04   1.1751E+06  0.000E+00  0.000E+00  0.000E+00  3.36336E+01  5.225E-01  2.000E+01  2.000E+04 -1.456E+00
   1   17   28     3     7    1.1751E+06 -3.6226E+04   1.2114E+06  0.000E+00  0.000E+00  0.000E+00  3.27535E+01  5.313E-01  2.000E+01  2.000E+04 -1.811E+00
   1   18   29     3     8    1.2114E+06 -4.7256E+04   1.2586E+06  0.000E+00  0.000E+00  0.000E+00  3.18757E+01  5.424E-01  2.000E+01  2.000E+04 -2.363E+00
   1   18   30     3     9    1.2586E+06 -4.3720E+04   1.3023E+06  0.000E+00  0.000E+00  0.000E+00  3.09987E+01  5.543E-01  2.000E+01  2.000E+04 -2.186E+00



1
  VOLUMETRIC BUDGET FOR ENTIRE MODEL AT END OF TIME STEP  1 IN STRESS PERIOD   4
  ------------------------------------------------------------------------------

     CUMULATIVE VOLUMES      L**3       RATES FOR THIS TIME STEP      L**3/T
     ------------------                 ------------------------

           IN:                                      IN:
           ---                                      ---
             STORAGE =    19992562.6548               STORAGE =         625.3503
       CONSTANT HEAD =   415527637.9896         CONSTANT HEAD =     1155524.0619
            RECHARGE =     8804400.0000              RECHARGE =       27600.0000
      STREAM LEAKAGE =           0.0000        STREAM LEAKAGE =           0.0000
        MANAGED FLOW =           0.0000          MANAGED FLOW =           0.0000

            TOTAL IN =   444324600.6443              TOTAL IN =     1183749.4122

          OUT:                                     OUT:
          ----                                     ----
             STORAGE =      152133.7433               STORAGE =        1422.4130
       CONSTANT HEAD =           0.0000         CONSTANT HEAD =           0.0000
            RECHARGE =           0.0000              RECHARGE =           0.0000
      STREAM LEAKAGE =   429127511.6815        STREAM LEAKAGE =     1152326.6335
        MANAGED FLOW =    15045000.0000          MANAGED FLOW =       30000.0000

           TOTAL OUT =   444324645.4248             TOTAL OUT =     1183749.0465

            IN - OUT =         -44.7805              IN - OUT =           0.3657

 PERCENT DISCREPANCY =           0.00     PERCENT DISCREPANCY =           0.00






          TIME SUMMARY AT END OF TIME STEP   1 IN STRESS PERIOD    4
                    SECONDS     MINUTES      HOURS       DAYS        YEARS
                    -----------------------------------------------------------
   TIME STEP LENGTH 7.86240E+06 1.31040E+05  2184.0      91.000     0.24914    
 STRESS PERIOD TIME 7.86240E+06 1.31040E+05  2184.0      91.000     0.24914    
         TOTAL TIME 3.15360E+07 5.25600E+05  8760.0      365.00     0.99932    
1
1
                            STRESS PERIOD NO.    5, LENGTH =   92.00000    
                            -----------------------------------------------

                              NUMBER OF TIME STEPS =     1

                               MULTIPLIER FOR DELT =     1.500

                            INITIAL TIME STEP SIZE =   92.00000    

                 RECHARGE =  5.000000E-04

 REUSING STREAM SEGMENT DATA FROM LAST STRESS PERIOD
 
 SOLVING FOR HEAD 


     5 CALLS TO PCG ROUTINE FOR TIME STEP   1 IN STRESS PERIOD    5
    17 TOTAL ITERATIONS

 HEAD/DRAWDOWN PRINTOUT FLAG = 1     TOTAL BUDGET PRINTOUT FLAG = 1
 CELL-BY-CELL FLOW TERM FLAG = 1

 OUTPUT FLAGS FOR ALL LAYERS ARE THE SAME:
   HEAD    DRAWDOWN  HEAD  DRAWDOWN
 PRINTOUT  PRINTOUT  SAVE    SAVE
 ----------------------------------
     0         0       0       0



 STREAM LISTING     PERIOD      5   STEP        1

 LAYER ROW COL. STREAM  RCH.  FLOW INTO     FLOW TO   FLOW OUT OF   OVRLND.     DIRECT     STREAM       STREAM     STREAM     STREAM   STREAMBED  STREAMBED
                SEG.NO.  NO.  STRM. RCH.    AQUIFER    STRM. RCH.    RUNOFF     PRECIP       ET          HEAD       DEPTH      WIDTH   CONDCTNC.   GRADIENT

   1   13    1     1     1    1.0000E+05 -2.7688E+04   1.2769E+05  0.000E+00  0.000E+00  0.000E+00  4.84177E+01  1.564E-01  2.000E+01  2.000E+04 -1.384E+00
   1   13    2     1     2    1.2769E+05 -3.7403E+04   1.6509E+05  0.000E+00  0.000E+00  0.000E+00  4.79659E+01  1.818E-01  2.000E+01  2.000E+04 -1.870E+00
   1   14    3     1     3    1.6509E+05 -3.2876E+04   1.9797E+05  0.000E+00  0.000E+00  0.000E+00  4.75137E+01  2.069E-01  2.000E+01  2.000E+04 -1.644E+00
   1   15    4     1     4    1.9797E+05 -3.2107E+04   2.3007E+05  0.000E+00  0.000E+00  0.000E+00  4.70579E+01  2.283E-01  2.000E+01  2.000E+04 -1.605E+00
   1   16    5     1     5    2.3007E+05 -3.3621E+04   2.6369E+05  0.000E+00  0.000E+00  0.000E+00  4.66011E+01  2.488E-01  2.000E+01  2.000E+04 -1.681E+00
   1   16    6     1     6    2.6369E+05 -2.9364E+04   2.9306E+05  0.000E+00  0.000E+00  0.000E+00  4.61424E+01  2.674E-01  2.000E+01  2.000E+04 -1.468E+00
   1   16    7     1     7    2.9306E+05 -2.9167E+04   3.2223E+05  0.000E+00  0.000E+00  0.000E+00  4.56816E+01  2.839E-01  2.000E+01  2.000E+04 -1.458E+00
   1   16    8     1     8    3.2223E+05 -2.9315E+04   3.5154E+05  0.000E+00  0.000E+00  0.000E+00  4.52202E+01  2.998E-01  2.000E+01  2.000E+04 -1.466E+00
   1   16    9     1     9    3.5154E+05 -2.9334E+04   3.8087E+05  0.000E+00  0.000E+00  0.000E+00  4.47584E+01  3.152E-01  2.000E+01  2.000E+04 -1.467E+00
   1   16   10     1    10    3.8087E+05 -2.9249E+04   4.1012E+05  0.000E+00  0.000E+00  0.000E+00  4.42960E+01  3.301E-01  2.000E+01  2.000E+04 -1.462E+00
   1   16   11     1    11    4.1012E+05 -2.9606E+04   4.3973E+05  0.000E+00  0.000E+00  0.000E+00  4.38332E+01  3.446E-01  2.000E+01  2.000E+04 -1.480E+00
   1   16   12     1    12    4.3973E+05 -3.4333E+04   4.7406E+05  0.000E+00  0.000E+00  0.000E+00  4.33713E+01  3.599E-01  2.000E+01  2.000E+04 -1.717E+00
   1   15   13     1    13    4.7406E+05 -3.2470E+04   5.0653E+05  0.000E+00  0.000E+00  0.000E+00  4.29096E+01  3.755E-01  2.000E+01  2.000E+04 -1.624E+00
   1   14   14     1    14    5.0653E+05 -3.2637E+04   5.3917E+05  0.000E+00  0.000E+00  0.000E+00  4.24471E+01  3.903E-01  2.000E+01  2.000E+04 -1.632E+00
   1   13   15     1    15    5.3917E+05 -3.5043E+04   5.7421E+05  0.000E+00  0.000E+00  0.000E+00  4.19848E+01  4.052E-01  2.000E+01  2.000E+04 -1.752E+00
   1   12   16     1    16    5.7421E+05 -4.2042E+04   6.1626E+05  0.000E+00  0.000E+00  0.000E+00  4.15241E+01  4.218E-01  2.000E+01  2.000E+04 -2.102E+00
   1   12   17     1    17    6.1626E+05 -3.2430E+04   6.4869E+05  0.000E+00  0.000E+00  0.000E+00  4.10625E+01  4.375E-01  2.000E+01  2.000E+04 -1.622E+00
   1   12   18     1    18    6.4869E+05 -3.0935E+04   6.7962E+05  0.000E+00  0.000E+00  0.000E+00  4.05982E+01  4.505E-01  2.000E+01  2.000E+04 -1.547E+00
   1   12   19     1    19    6.7962E+05 -3.5311E+04   7.1493E+05  0.000E+00  0.000E+00  0.000E+00  4.01343E+01  4.638E-01  2.000E+01  2.000E+04 -1.766E+00
   1   13   20     1    20    7.1493E+05 -2.4998E+04   7.3993E+05  0.000E+00  0.000E+00  0.000E+00  3.96690E+01  4.758E-01  2.000E+01  2.000E+04 -1.250E+00
   1   14   21     1    21    7.3993E+05 -1.7951E+04   7.5788E+05  0.000E+00  0.000E+00  0.000E+00  3.92001E+01  4.842E-01  2.000E+01  2.000E+04 -8.975E-01
   1   14   22     1    22    7.5788E+05 -1.4104E+03   7.5929E+05  0.000E+00  0.000E+00  0.000E+00  3.87265E+01  4.879E-01  2.000E+01  2.000E+04 -7.052E-02
   1    9   30     2     1    5.0000E+04 -2.6481E+04   7.6481E+04  0.000E+00  0.000E+00  0.000E+00  4.02584E+01  1.334E-01  2.000E+01  2.000E+04 -1.324E+00
   1    9   29     2     2    7.6481E+04 -2.8949E+04   1.0543E+05  0.000E+00  0.000E+00  0.000E+00  4.00409E+01  1.659E-01  2.000E+01  2.000E+04 -1.447E+00
   1    9   28     2     3    1.0543E+05 -3.3235E+04   1.3866E+05  0.000E+00  0.000E+00  0.000E+00  3.98229E+01  1.979E-01  2.000E+01  2.000E+04 -1.662E+00
   1    9   27     2     4    1.3866E+05 -4.7343E+04   1.8601E+05  0.000E+00  0.000E+00  0.000E+00  3.96099E+01  2.349E-01  2.000E+01  2.000E+04 -2.367E+00
   1   10   26     2     5    1.8601E+05 -3.3305E+04   2.1931E+05  0.000E+00  0.000E+00  0.000E+00  3.93933E+01  2.683E-01  2.000E+01  2.000E+04 -1.665E+00
   1   11   25     2     6    2.1931E+05 -2.4947E+04   2.4426E+05  0.000E+00  0.000E+00  0.000E+00  3.91658E+01  2.908E-01  2.000E+01  2.000E+04 -1.247E+00
   1   12   24     2     7    2.4426E+05 -1.8351E+04   2.6261E+05  0.000E+00  0.000E+00  0.000E+00  3.89318E+01  3.068E-01  2.000E+01  2.000E+04 -9.175E-01
   1   13   23     2     8    2.6261E+05 -1.2919E+04   2.7553E+05  0.000E+00  0.000E+00  0.000E+00  3.86930E+01  3.180E-01  2.000E+01  2.000E+04 -6.459E-01
   1   14   22     2     9    2.7553E+05 -6.9404E+03   2.8247E+05  0.000E+00  0.000E+00  0.000E+00  3.84500E+01  3.250E-01  2.000E+01  2.000E+04 -3.470E-01
   1   14   22     3     1    1.0418E+06 -1.4993E+04   1.0568E+06  0.000E+00  0.000E+00  0.000E+00  3.80474E+01  4.918E-01  2.000E+01  2.000E+04 -7.497E-01
   1   15   23     3     2    1.0568E+06 -2.2776E+04   1.0795E+06  0.000E+00  0.000E+00  0.000E+00  3.71638E+01  4.971E-01  2.000E+01  2.000E+04 -1.139E+00
   1   15   24     3     3    1.0795E+06 -1.9284E+04   1.0988E+06  0.000E+00  0.000E+00  0.000E+00  3.62808E+01  5.030E-01  2.000E+01  2.000E+04 -9.642E-01
   1   15   25     3     4    1.0988E+06 -1.9048E+04   1.1179E+06  0.000E+00  0.000E+00  0.000E+00  3.53972E+01  5.083E-01  2.000E+01  2.000E+04 -9.524E-01
   1   15   26     3     5    1.1179E+06 -2.1881E+04   1.1397E+06  0.000E+00  0.000E+00  0.000E+00  3.45139E+01  5.139E-01  2.000E+01  2.000E+04 -1.094E+00
   1   16   27     3     6    1.1397E+06 -2.8994E+04   1.1687E+06  0.000E+00  0.000E+00  0.000E+00  3.36319E+01  5.208E-01  2.000E+01  2.000E+04 -1.450E+00
   1   17   28     3     7    1.1687E+06 -3.6075E+04   1.2048E+06  0.000E+00  0.000E+00  0.000E+00  3.27518E+01  5.296E-01  2.000E+01  2.000E+04 -1.804E+00
   1   18   29     3     8    1.2048E+06 -4.7104E+04   1.2519E+06  0.000E+00  0.000E+00  0.000E+00  3.18740E+01  5.406E-01  2.000E+01  2.000E+04 -2.355E+00
   1   18   30     3     9    1.2519E+06 -4.3597E+04   1.2955E+06  0.000E+00  0.000E+00  0.000E+00  3.09970E+01  5.525E-01  2.000E+01  2.000E+04 -2.180E+00



1
  VOLUMETRIC BUDGET FOR ENTIRE MODEL AT END OF TIME STEP  1 IN STRESS PERIOD   5
  ------------------------------------------------------------------------------

     CUMULATIVE VOLUMES      L**3       RATES FOR THIS TIME STEP      L**3/T
     ------------------                 ------------------------

           IN:                                      IN:
           ---                                      ---
             STORAGE =    20049629.0647               STORAGE =         620.2871
       CONSTANT HEAD =   522348172.0993         CONSTANT HEAD =     1161092.7621
            RECHARGE =    10074000.0000              RECHARGE =       13800.0000
      STREAM LEAKAGE =           0.0000        STREAM LEAKAGE =           0.0000
        MANAGED FLOW =           0.0000          MANAGED FLOW =           0.0000

            TOTAL IN =   552471801.1639              TOTAL IN =     1175513.0491

          OUT:                                     OUT:
          ----                                     ----
             STORAGE =      152133.7433               STORAGE =           0.0000
       CONSTANT HEAD =           0.0000         CONSTANT HEAD =           0.0000
            RECHARGE =           0.0000              RECHARGE =           0.0000
      STREAM LEAKAGE =   534514729.4644        STREAM LEAKAGE =     1145513.2368
        MANAGED FLOW =    17805000.0000          MANAGED FLOW =       30000.0000

           TOTAL OUT =   552471863.2076             TOTAL OUT =     1175513.2368

            IN - OUT =         -62.0437              IN - OUT =          -0.1876

 PERCENT DISCREPANCY =           0.00     PERCENT DISCREPANCY =           0.00






          TIME SUMMARY AT END OF TIME STEP   1 IN STRESS PERIOD    5
                    SECONDS     MINUTES      HOURS       DAYS        YEARS
                    -----------------------------------------------------------
   TIME STEP LENGTH 7.94880E+06 1.32480E+05  2208.0      92.000     0.25188    
 STRESS PERIOD TIME 7.94880E+06 1.32480E+05  2208.0      92.000     0.25188    
         TOTAL TIME 3.94848E+07 6.58080E+05  10968.      457.00      1.2512    
1
1
                            STRESS PERIOD NO.    6, LENGTH =   91.00000    
                            -----------------------------------------------

                              NUMBER OF TIME STEPS =     1

                               MULTIPLIER FOR DELT =     1.500

                            INITIAL TIME STEP SIZE =   91.00000    

                 RECHARGE =  2.000000E-03

 REUSING STREAM SEGMENT DATA FROM LAST STRESS PERIOD
 
 SOLVING FOR HEAD 


     5 CALLS TO PCG ROUTINE FOR TIME STEP   1 IN STRESS PERIOD    6
    19 TOTAL ITERATIONS

 HEAD/DRAWDOWN PRINTOUT FLAG = 1     TOTAL BUDGET PRINTOUT FLAG = 1
 CELL-BY-CELL FLOW TERM FLAG = 1

 OUTPUT FLAGS FOR ALL LAYERS ARE THE SAME:
   HEAD    DRAWDOWN  HEAD  DRAWDOWN
 PRINTOUT  PRINTOUT  SAVE    SAVE
 ----------------------------------
     0         0       0       0



 STREAM LISTING     PERIOD      6   STEP        1

 LAYER ROW COL. STREAM  RCH.  FLOW INTO     FLOW TO   FLOW OUT OF   OVRLND.     DIRECT     STREAM       STREAM     STREAM     STREAM   STREAMBED  STREAMBED
                SEG.NO.  NO.  STRM. RCH.    AQUIFER    STRM. RCH.    RUNOFF     PRECIP       ET          HEAD       DEPTH      WIDTH   CONDCTNC.   GRADIENT

   1   13    1     1     1    1.0000E+05 -2.8360E+04   1.2836E+05  0.000E+00  0.000E+00  0.000E+00  4.84180E+01  1.566E-01  2.000E+01  2.000E+04 -1.418E+00
   1   13    2     1     2    1.2836E+05 -3.8209E+04   1.6657E+05  0.000E+00  0.000E+00  0.000E+00  4.79667E+01  1.826E-01  2.000E+01  2.000E+04 -1.910E+00
   1   14    3     1     3    1.6657E+05 -3.3671E+04   2.0024E+05  0.000E+00  0.000E+00  0.000E+00  4.75150E+01  2.081E-01  2.000E+01  2.000E+04 -1.684E+00
   1   15    4     1     4    2.0024E+05 -3.2884E+04   2.3312E+05  0.000E+00  0.000E+00  0.000E+00  4.70596E+01  2.300E-01  2.000E+01  2.000E+04 -1.644E+00
   1   16    5     1     5    2.3312E+05 -3.4345E+04   2.6747E+05  0.000E+00  0.000E+00  0.000E+00  4.66031E+01  2.508E-01  2.000E+01  2.000E+04 -1.717E+00
   1   16    6     1     6    2.6747E+05 -3.0014E+04   2.9748E+05  0.000E+00  0.000E+00  0.000E+00  4.61447E+01  2.697E-01  2.000E+01  2.000E+04 -1.501E+00
   1   16    7     1     7    2.9748E+05 -2.9841E+04   3.2732E+05  0.000E+00  0.000E+00  0.000E+00  4.56842E+01  2.865E-01  2.000E+01  2.000E+04 -1.492E+00
   1   16    8     1     8    3.2732E+05 -3.0036E+04   3.5736E+05  0.000E+00  0.000E+00  0.000E+00  4.52231E+01  3.027E-01  2.000E+01  2.000E+04 -1.502E+00
   1   16    9     1     9    3.5736E+05 -3.0129E+04   3.8749E+05  0.000E+00  0.000E+00  0.000E+00  4.47616E+01  3.184E-01  2.000E+01  2.000E+04 -1.506E+00
   1   16   10     1    10    3.8749E+05 -3.0168E+04   4.1766E+05  0.000E+00  0.000E+00  0.000E+00  4.42995E+01  3.336E-01  2.000E+01  2.000E+04 -1.508E+00
   1   16   11     1    11    4.1766E+05 -3.0792E+04   4.4845E+05  0.000E+00  0.000E+00  0.000E+00  4.38372E+01  3.485E-01  2.000E+01  2.000E+04 -1.540E+00
   1   16   12     1    12    4.4845E+05 -3.6399E+04   4.8485E+05  0.000E+00  0.000E+00  0.000E+00  4.33759E+01  3.645E-01  2.000E+01  2.000E+04 -1.820E+00
   1   15   13     1    13    4.8485E+05 -3.5195E+04   5.2004E+05  0.000E+00  0.000E+00  0.000E+00  4.29151E+01  3.810E-01  2.000E+01  2.000E+04 -1.760E+00
   1   14   14     1    14    5.2004E+05 -3.5800E+04   5.5584E+05  0.000E+00  0.000E+00  0.000E+00  4.24538E+01  3.970E-01  2.000E+01  2.000E+04 -1.790E+00
   1   13   15     1    15    5.5584E+05 -3.8021E+04   5.9386E+05  0.000E+00  0.000E+00  0.000E+00  4.19926E+01  4.131E-01  2.000E+01  2.000E+04 -1.901E+00
   1   12   16     1    16    5.9386E+05 -4.4056E+04   6.3792E+05  0.000E+00  0.000E+00  0.000E+00  4.15328E+01  4.306E-01  2.000E+01  2.000E+04 -2.203E+00
   1   12   17     1    17    6.3792E+05 -3.4459E+04   6.7238E+05  0.000E+00  0.000E+00  0.000E+00  4.10718E+01  4.468E-01  2.000E+01  2.000E+04 -1.723E+00
   1   12   18     1    18    6.7238E+05 -3.2794E+04   7.0517E+05  0.000E+00  0.000E+00  0.000E+00  4.06082E+01  4.604E-01  2.000E+01  2.000E+04 -1.640E+00
   1   12   19     1    19    7.0517E+05 -3.6850E+04   7.4202E+05  0.000E+00  0.000E+00  0.000E+00  4.01447E+01  4.743E-01  2.000E+01  2.000E+04 -1.842E+00
   1   13   20     1    20    7.4202E+05 -2.7013E+04   7.6904E+05  0.000E+00  0.000E+00  0.000E+00  3.96799E+01  4.867E-01  2.000E+01  2.000E+04 -1.351E+00
   1   14   21     1    21    7.6904E+05 -1.9761E+04   7.8880E+05  0.000E+00  0.000E+00  0.000E+00  3.92116E+01  4.957E-01  2.000E+01  2.000E+04 -9.880E-01
   1   14   22     1    22    7.8880E+05 -1.1463E+03   7.8994E+05  0.000E+00  0.000E+00  0.000E+00  3.87383E+01  4.997E-01  2.000E+01  2.000E+04 -5.732E-02
   1    9   30     2     1    5.0000E+04 -2.6479E+04   7.6479E+04  0.000E+00  0.000E+00  0.000E+00  4.02584E+01  1.334E-01  2.000E+01  2.000E+04 -1.324E+00
   1    9   29     2     2    7.6479E+04 -2.8926E+04   1.0541E+05  0.000E+00  0.000E+00  0.000E+00  4.00409E+01  1.659E-01  2.000E+01  2.000E+04 -1.446E+00
   1    9   28     2     3    1.0541E+05 -3.3193E+04   1.3860E+05  0.000E+00  0.000E+00  0.000E+00  3.98229E+01  1.979E-01  2.000E+01  2.000E+04 -1.660E+00
   1    9   27     2     4    1.3860E+05 -4.7360E+04   1.8596E+05  0.000E+00  0.000E+00  0.000E+00  3.96098E+01  2.348E-01  2.000E+01  2.000E+04 -2.368E+00
   1   10   26     2     5    1.8596E+05 -3.2626E+04   2.1859E+05  0.000E+00  0.000E+00  0.000E+00  3.93930E+01  2.680E-01  2.000E+01  2.000E+04 -1.631E+00
   1   11   25     2     6    2.1859E+05 -2.2924E+04   2.4151E+05  0.000E+00  0.000E+00  0.000E+00  3.91645E+01  2.895E-01  2.000E+01  2.000E+04 -1.146E+00
   1   12   24     2     7    2.4151E+05 -1.5000E+04   2.5651E+05  0.000E+00  0.000E+00  0.000E+00  3.89286E+01  3.036E-01  2.000E+01  2.000E+04 -7.500E-01
   1   13   23     2     8    2.5651E+05 -1.0251E+04   2.6676E+05  0.000E+00  0.000E+00  0.000E+00  3.86877E+01  3.127E-01  2.000E+01  2.000E+04 -5.126E-01
   1   14   22     2     9    2.6676E+05 -7.0346E+03   2.7380E+05  0.000E+00  0.000E+00  0.000E+00  3.84439E+01  3.189E-01  2.000E+01  2.000E+04 -3.517E-01
   1   14   22     3     1    1.0637E+06 -1.4842E+04   1.0786E+06  0.000E+00  0.000E+00  0.000E+00  3.80535E+01  4.980E-01  2.000E+01  2.000E+04 -7.421E-01
   1   15   23     3     2    1.0786E+06 -2.2075E+04   1.1007E+06  0.000E+00  0.000E+00  0.000E+00  3.71698E+01  5.031E-01  2.000E+01  2.000E+04 -1.104E+00
   1   15   24     3     3    1.1007E+06 -1.5062E+04   1.1157E+06  0.000E+00  0.000E+00  0.000E+00  3.62860E+01  5.082E-01  2.000E+01  2.000E+04 -7.531E-01
   1   15   25     3     4    1.1157E+06 -9.2119E+03   1.1249E+06  0.000E+00  0.000E+00  0.000E+00  3.54005E+01  5.116E-01  2.000E+01  2.000E+04 -4.606E-01
   1   15   26     3     5    1.1249E+06 -1.6469E+04   1.1414E+06  0.000E+00  0.000E+00  0.000E+00  3.45151E+01  5.151E-01  2.000E+01  2.000E+04 -8.234E-01
   1   16   27     3     6    1.1414E+06 -2.7761E+04   1.1692E+06  0.000E+00  0.000E+00  0.000E+00  3.36322E+01  5.211E-01  2.000E+01  2.000E+04 -1.388E+00
   1   17   28     3     7    1.1692E+06 -3.5893E+04   1.2051E+06  0.000E+00  0.000E+00  0.000E+00  3.27519E+01  5.297E-01  2.000E+01  2.000E+04 -1.795E+00
   1   18   29     3     8    1.2051E+06 -4.7335E+04   1.2524E+06  0.000E+00  0.000E+00  0.000E+00  3.18741E+01  5.407E-01  2.000E+01  2.000E+04 -2.367E+00
   1   18   30     3     9    1.2524E+06 -4.3738E+04   1.2961E+06  0.000E+00  0.000E+00  0.000E+00  3.09971E+01  5.527E-01  2.000E+01  2.000E+04 -2.187E+00



1
  VOLUMETRIC BUDGET FOR ENTIRE MODEL AT END OF TIME STEP  1 IN STRESS PERIOD   6
  ------------------------------------------------------------------------------

     CUMULATIVE VOLUMES      L**3       RATES FOR THIS TIME STEP      L**3/T
     ------------------                 ------------------------

           IN:                                      IN:
           ---                                      ---
             STORAGE =    20085849.0396               STORAGE =         398.0217
       CONSTANT HEAD =   625978023.5416         CONSTANT HEAD =     1138789.5763
            RECHARGE =    15097200.0000              RECHARGE =       55200.0000
      STREAM LEAKAGE =           0.0000        STREAM LEAKAGE =           0.0000
        MANAGED FLOW =           0.0000          MANAGED FLOW =           0.0000

            TOTAL IN =   661161072.5812              TOTAL IN =     1194387.5980

          OUT:                                     OUT:
          ----                                     ----
             STORAGE =      448898.8978               STORAGE =        3261.1555
       CONSTANT HEAD =           0.0000         CONSTANT HEAD =           0.0000
            RECHARGE =           0.0000              RECHARGE =           0.0000
      STREAM LEAKAGE =   638812210.6627        STREAM LEAKAGE =     1146126.1670
        MANAGED FLOW =    21900000.0000          MANAGED FLOW =       45000.0000

           TOTAL OUT =   661161109.5605             TOTAL OUT =     1194387.3226

            IN - OUT =         -36.9793              IN - OUT =           0.2754

 PERCENT DISCREPANCY =           0.00     PERCENT DISCREPANCY =           0.00






          TIME SUMMARY AT END OF TIME STEP   1 IN STRESS PERIOD    6
                    SECONDS     MINUTES      HOURS       DAYS        YEARS
                    -----------------------------------------------------------
   TIME STEP LENGTH 7.86240E+06 1.31040E+05  2184.0      91.000     0.24914    
 STRESS PERIOD TIME 7.86240E+06 1.31040E+05  2184.0      91.000     0.24914    
         TOTAL TIME 4.73472E+07 7.89120E+05  13152.      548.00      1.5003    
1
1
                            STRESS PERIOD NO.    7, LENGTH =   91.00000    
                            -----------------------------------------------

                              NUMBER OF TIME STEPS =     1

                               MULTIPLIER FOR DELT =     1.500

                            INITIAL TIME STEP SIZE =   91.00000    

                 RECHARGE =   0.00000    

 REUSING STREAM SEGMENT DATA FROM LAST STRESS PERIOD
 
 SOLVING FOR HEAD 


     5 CALLS TO PCG ROUTINE FOR TIME STEP   1 IN STRESS PERIOD    7
    19 TOTAL ITERATIONS

 HEAD/DRAWDOWN PRINTOUT FLAG = 1     TOTAL BUDGET PRINTOUT FLAG = 1
 CELL-BY-CELL FLOW TERM FLAG = 1

 OUTPUT FLAGS FOR ALL LAYERS ARE THE SAME:
   HEAD    DRAWDOWN  HEAD  DRAWDOWN
 PRINTOUT  PRINTOUT  SAVE    SAVE
 ----------------------------------
     0         0       0       0



 STREAM LISTING     PERIOD      7   STEP        1

 LAYER ROW COL. STREAM  RCH.  FLOW INTO     FLOW TO   FLOW OUT OF   OVRLND.     DIRECT     STREAM       STREAM     STREAM     STREAM   STREAMBED  STREAMBED
                SEG.NO.  NO.  STRM. RCH.    AQUIFER    STRM. RCH.    RUNOFF     PRECIP       ET          HEAD       DEPTH      WIDTH   CONDCTNC.   GRADIENT

   1   13    1     1     1    1.0000E+05 -2.7510E+04   1.2751E+05  0.000E+00  0.000E+00  0.000E+00  4.84176E+01  1.563E-01  2.000E+01  2.000E+04 -1.375E+00
   1   13    2     1     2    1.2751E+05 -3.7193E+04   1.6470E+05  0.000E+00  0.000E+00  0.000E+00  4.79657E+01  1.816E-01  2.000E+01  2.000E+04 -1.860E+00
   1   14    3     1     3    1.6470E+05 -3.2674E+04   1.9738E+05  0.000E+00  0.000E+00  0.000E+00  4.75134E+01  2.065E-01  2.000E+01  2.000E+04 -1.634E+00
   1   15    4     1     4    1.9738E+05 -3.1920E+04   2.2930E+05  0.000E+00  0.000E+00  0.000E+00  4.70575E+01  2.279E-01  2.000E+01  2.000E+04 -1.596E+00
   1   16    5     1     5    2.2930E+05 -3.3468E+04   2.6277E+05  0.000E+00  0.000E+00  0.000E+00  4.66005E+01  2.483E-01  2.000E+01  2.000E+04 -1.673E+00
   1   16    6     1     6    2.6277E+05 -2.9247E+04   2.9201E+05  0.000E+00  0.000E+00  0.000E+00  4.61418E+01  2.668E-01  2.000E+01  2.000E+04 -1.462E+00
   1   16    7     1     7    2.9201E+05 -2.9073E+04   3.2109E+05  0.000E+00  0.000E+00  0.000E+00  4.56810E+01  2.833E-01  2.000E+01  2.000E+04 -1.454E+00
   1   16    8     1     8    3.2109E+05 -2.9254E+04   3.5034E+05  0.000E+00  0.000E+00  0.000E+00  4.52196E+01  2.992E-01  2.000E+01  2.000E+04 -1.463E+00
   1   16    9     1     9    3.5034E+05 -2.9326E+04   3.7967E+05  0.000E+00  0.000E+00  0.000E+00  4.47577E+01  3.146E-01  2.000E+01  2.000E+04 -1.466E+00
   1   16   10     1    10    3.7967E+05 -2.9331E+04   4.0900E+05  0.000E+00  0.000E+00  0.000E+00  4.42954E+01  3.295E-01  2.000E+01  2.000E+04 -1.467E+00
   1   16   11     1    11    4.0900E+05 -2.9868E+04   4.3886E+05  0.000E+00  0.000E+00  0.000E+00  4.38327E+01  3.441E-01  2.000E+01  2.000E+04 -1.493E+00
   1   16   12     1    12    4.3886E+05 -3.5115E+04   4.7398E+05  0.000E+00  0.000E+00  0.000E+00  4.33711E+01  3.597E-01  2.000E+01  2.000E+04 -1.756E+00
   1   15   13     1    13    4.7398E+05 -3.3632E+04   5.0761E+05  0.000E+00  0.000E+00  0.000E+00  4.29098E+01  3.757E-01  2.000E+01  2.000E+04 -1.682E+00
   1   14   14     1    14    5.0761E+05 -3.4069E+04   5.4168E+05  0.000E+00  0.000E+00  0.000E+00  4.24479E+01  3.911E-01  2.000E+01  2.000E+04 -1.703E+00
   1   13   15     1    15    5.4168E+05 -3.6347E+04   5.7803E+05  0.000E+00  0.000E+00  0.000E+00  4.19861E+01  4.066E-01  2.000E+01  2.000E+04 -1.817E+00
   1   12   16     1    16    5.7803E+05 -4.2700E+04   6.2073E+05  0.000E+00  0.000E+00  0.000E+00  4.15259E+01  4.236E-01  2.000E+01  2.000E+04 -2.135E+00
   1   12   17     1    17    6.2073E+05 -3.3231E+04   6.5396E+05  0.000E+00  0.000E+00  0.000E+00  4.10645E+01  4.395E-01  2.000E+01  2.000E+04 -1.662E+00
   1   12   18     1    18    6.5396E+05 -3.1633E+04   6.8559E+05  0.000E+00  0.000E+00  0.000E+00  4.06005E+01  4.528E-01  2.000E+01  2.000E+04 -1.582E+00
   1   12   19     1    19    6.8559E+05 -3.5702E+04   7.2129E+05  0.000E+00  0.000E+00  0.000E+00  4.01368E+01  4.663E-01  2.000E+01  2.000E+04 -1.785E+00
   1   13   20     1    20    7.2129E+05 -2.5720E+04   7.4701E+05  0.000E+00  0.000E+00  0.000E+00  3.96716E+01  4.784E-01  2.000E+01  2.000E+04 -1.286E+00
   1   14   21     1    21    7.4701E+05 -1.8572E+04   7.6559E+05  0.000E+00  0.000E+00  0.000E+00  3.92029E+01  4.870E-01  2.000E+01  2.000E+04 -9.286E-01
   1   14   22     1    22    7.6559E+05 -7.3786E+02   7.6632E+05  0.000E+00  0.000E+00  0.000E+00  3.87294E+01  4.907E-01  2.000E+01  2.000E+04 -3.689E-02
   1    9   30     2     1    5.0000E+04 -2.5821E+04   7.5821E+04  0.000E+00  0.000E+00  0.000E+00  4.02580E+01  1.330E-01  2.000E+01  2.000E+04 -1.291E+00
   1    9   29     2     2    7.5821E+04 -2.8265E+04   1.0409E+05  0.000E+00  0.000E+00  0.000E+00  4.00398E+01  1.648E-01  2.000E+01  2.000E+04 -1.413E+00
   1    9   28     2     3    1.0409E+05 -3.2509E+04   1.3659E+05  0.000E+00  0.000E+00  0.000E+00  3.98213E+01  1.963E-01  2.000E+01  2.000E+04 -1.625E+00
   1    9   27     2     4    1.3659E+05 -4.6532E+04   1.8313E+05  0.000E+00  0.000E+00  0.000E+00  3.96077E+01  2.327E-01  2.000E+01  2.000E+04 -2.327E+00
   1   10   26     2     5    1.8313E+05 -3.1672E+04   2.1480E+05  0.000E+00  0.000E+00  0.000E+00  3.93904E+01  2.654E-01  2.000E+01  2.000E+04 -1.584E+00
   1   11   25     2     6    2.1480E+05 -2.1831E+04   2.3663E+05  0.000E+00  0.000E+00  0.000E+00  3.91612E+01  2.862E-01  2.000E+01  2.000E+04 -1.092E+00
   1   12   24     2     7    2.3663E+05 -1.3823E+04   2.5045E+05  0.000E+00  0.000E+00  0.000E+00  3.89246E+01  2.996E-01  2.000E+01  2.000E+04 -6.911E-01
   1   13   23     2     8    2.5045E+05 -9.2554E+03   2.5971E+05  0.000E+00  0.000E+00  0.000E+00  3.86830E+01  3.080E-01  2.000E+01  2.000E+04 -4.628E-01
   1   14   22     2     9    2.5971E+05 -6.5511E+03   2.6626E+05  0.000E+00  0.000E+00  0.000E+00  3.84387E+01  3.137E-01  2.000E+01  2.000E+04 -3.276E-01
   1   14   22     3     1    1.0326E+06 -1.4431E+04   1.0470E+06  0.000E+00  0.000E+00  0.000E+00  3.80447E+01  4.892E-01  2.000E+01  2.000E+04 -7.215E-01
   1   15   23     3     2    1.0470E+06 -2.0991E+04   1.0680E+06  0.000E+00  0.000E+00  0.000E+00  3.71608E+01  4.942E-01  2.000E+01  2.000E+04 -1.050E+00
   1   15   24     3     3    1.0680E+06 -1.3866E+04   1.0819E+06  0.000E+00  0.000E+00  0.000E+00  3.62768E+01  4.990E-01  2.000E+01  2.000E+04 -6.933E-01
   1   15   25     3     4    1.0819E+06 -7.4425E+03   1.0893E+06  0.000E+00  0.000E+00  0.000E+00  3.53909E+01  5.020E-01  2.000E+01  2.000E+04 -3.721E-01
   1   15   26     3     5    1.0893E+06 -1.5131E+04   1.1044E+06  0.000E+00  0.000E+00  0.000E+00  3.45051E+01  5.051E-01  2.000E+01  2.000E+04 -7.565E-01
   1   16   27     3     6    1.1044E+06 -2.6759E+04   1.1312E+06  0.000E+00  0.000E+00  0.000E+00  3.36220E+01  5.109E-01  2.000E+01  2.000E+04 -1.338E+00
   1   17   28     3     7    1.1312E+06 -3.5010E+04   1.1662E+06  0.000E+00  0.000E+00  0.000E+00  3.27415E+01  5.193E-01  2.000E+01  2.000E+04 -1.751E+00
   1   18   29     3     8    1.1662E+06 -4.6569E+04   1.2128E+06  0.000E+00  0.000E+00  0.000E+00  3.18636E+01  5.303E-01  2.000E+01  2.000E+04 -2.328E+00
   1   18   30     3     9    1.2128E+06 -4.3103E+04   1.2559E+06  0.000E+00  0.000E+00  0.000E+00  3.09866E+01  5.422E-01  2.000E+01  2.000E+04 -2.155E+00



1
  VOLUMETRIC BUDGET FOR ENTIRE MODEL AT END OF TIME STEP  1 IN STRESS PERIOD   7
  ------------------------------------------------------------------------------

     CUMULATIVE VOLUMES      L**3       RATES FOR THIS TIME STEP      L**3/T
     ------------------                 ------------------------

           IN:                                      IN:
           ---                                      ---
             STORAGE =    20365043.7035               STORAGE =        3068.0732
       CONSTANT HEAD =   731794304.3327         CONSTANT HEAD =     1162816.2724
            RECHARGE =    15097200.0000              RECHARGE =           0.0000
      STREAM LEAKAGE =           0.0000        STREAM LEAKAGE =           0.0000
        MANAGED FLOW =           0.0000          MANAGED FLOW =           0.0000

            TOTAL IN =   767256548.0362              TOTAL IN =     1165884.3457

          OUT:                                     OUT:
          ----                                     ----
             STORAGE =      448898.8978               STORAGE =           0.0000
       CONSTANT HEAD =           0.0000         CONSTANT HEAD =           0.0000
            RECHARGE =           0.0000              RECHARGE =           0.0000
      STREAM LEAKAGE =   739447714.7841        STREAM LEAKAGE =     1105884.6607
        MANAGED FLOW =    27360000.0000          MANAGED FLOW =       60000.0000

           TOTAL OUT =   767256613.6819             TOTAL OUT =     1165884.6607

            IN - OUT =         -65.6457              IN - OUT =          -0.3150

 PERCENT DISCREPANCY =           0.00     PERCENT DISCREPANCY =           0.00






          TIME SUMMARY AT END OF TIME STEP   1 IN STRESS PERIOD    7
                    SECONDS     MINUTES      HOURS       DAYS        YEARS
                    -----------------------------------------------------------
   TIME STEP LENGTH 7.86240E+06 1.31040E+05  2184.0      91.000     0.24914    
 STRESS PERIOD TIME 7.86240E+06 1.31040E+05  2184.0      91.000     0.24914    
         TOTAL TIME 5.52096E+07 9.20160E+05  15336.      639.00      1.7495    
1
1
                            STRESS PERIOD NO.    8, LENGTH =   91.00000    
                            -----------------------------------------------

                              NUMBER OF TIME STEPS =     1

                               MULTIPLIER FOR DELT =     1.500

                            INITIAL TIME STEP SIZE =   91.00000    

                 RECHARGE =  1.000000E-03

 REUSING STREAM SEGMENT DATA FROM LAST STRESS PERIOD
 
 SOLVING FOR HEAD 


     5 CALLS TO PCG ROUTINE FOR TIME STEP   1 IN STRESS PERIOD    8
    18 TOTAL ITERATIONS

 HEAD/DRAWDOWN PRINTOUT FLAG = 1     TOTAL BUDGET PRINTOUT FLAG = 1
 CELL-BY-CELL FLOW TERM FLAG = 1

 OUTPUT FLAGS FOR ALL LAYERS ARE THE SAME:
   HEAD    DRAWDOWN  HEAD  DRAWDOWN
 PRINTOUT  PRINTOUT  SAVE    SAVE
 ----------------------------------
     0         0       0       0



 STREAM LISTING     PERIOD      8   STEP        1

 LAYER ROW COL. STREAM  RCH.  FLOW INTO     FLOW TO   FLOW OUT OF   OVRLND.     DIRECT     STREAM       STREAM     STREAM     STREAM   STREAMBED  STREAMBED
                SEG.NO.  NO.  STRM. RCH.    AQUIFER    STRM. RCH.    RUNOFF     PRECIP       ET          HEAD       DEPTH      WIDTH   CONDCTNC.   GRADIENT

   1   13    1     1     1    1.0000E+05 -2.7889E+04   1.2789E+05  0.000E+00  0.000E+00  0.000E+00  4.84178E+01  1.564E-01  2.000E+01  2.000E+04 -1.394E+00
   1   13    2     1     2    1.2789E+05 -3.7642E+04   1.6553E+05  0.000E+00  0.000E+00  0.000E+00  4.79661E+01  1.821E-01  2.000E+01  2.000E+04 -1.882E+00
   1   14    3     1     3    1.6553E+05 -3.3112E+04   1.9864E+05  0.000E+00  0.000E+00  0.000E+00  4.75141E+01  2.072E-01  2.000E+01  2.000E+04 -1.656E+00
   1   15    4     1     4    1.9864E+05 -3.2336E+04   2.3098E+05  0.000E+00  0.000E+00  0.000E+00  4.70584E+01  2.289E-01  2.000E+01  2.000E+04 -1.617E+00
   1   16    5     1     5    2.3098E+05 -3.3830E+04   2.6481E+05  0.000E+00  0.000E+00  0.000E+00  4.66017E+01  2.494E-01  2.000E+01  2.000E+04 -1.692E+00
   1   16    6     1     6    2.6481E+05 -2.9547E+04   2.9436E+05  0.000E+00  0.000E+00  0.000E+00  4.61431E+01  2.681E-01  2.000E+01  2.000E+04 -1.477E+00
   1   16    7     1     7    2.9436E+05 -2.9350E+04   3.2371E+05  0.000E+00  0.000E+00  0.000E+00  4.56824E+01  2.847E-01  2.000E+01  2.000E+04 -1.467E+00
   1   16    8     1     8    3.2371E+05 -2.9500E+04   3.5321E+05  0.000E+00  0.000E+00  0.000E+00  4.52211E+01  3.006E-01  2.000E+01  2.000E+04 -1.475E+00
   1   16    9     1     9    3.5321E+05 -2.9522E+04   3.8273E+05  0.000E+00  0.000E+00  0.000E+00  4.47593E+01  3.161E-01  2.000E+01  2.000E+04 -1.476E+00
   1   16   10     1    10    3.8273E+05 -2.9441E+04   4.1217E+05  0.000E+00  0.000E+00  0.000E+00  4.42970E+01  3.310E-01  2.000E+01  2.000E+04 -1.472E+00
   1   16   11     1    11    4.1217E+05 -2.9808E+04   4.4198E+05  0.000E+00  0.000E+00  0.000E+00  4.38343E+01  3.456E-01  2.000E+01  2.000E+04 -1.490E+00
   1   16   12     1    12    4.4198E+05 -3.4585E+04   4.7656E+05  0.000E+00  0.000E+00  0.000E+00  4.33724E+01  3.610E-01  2.000E+01  2.000E+04 -1.729E+00
   1   15   13     1    13    4.7656E+05 -3.2749E+04   5.0931E+05  0.000E+00  0.000E+00  0.000E+00  4.29108E+01  3.767E-01  2.000E+01  2.000E+04 -1.637E+00
   1   14   14     1    14    5.0931E+05 -3.2924E+04   5.4223E+05  0.000E+00  0.000E+00  0.000E+00  4.24484E+01  3.916E-01  2.000E+01  2.000E+04 -1.646E+00
   1   13   15     1    15    5.4223E+05 -3.5322E+04   5.7755E+05  0.000E+00  0.000E+00  0.000E+00  4.19862E+01  4.066E-01  2.000E+01  2.000E+04 -1.766E+00
   1   12   16     1    16    5.7755E+05 -4.2294E+04   6.1985E+05  0.000E+00  0.000E+00  0.000E+00  4.15256E+01  4.233E-01  2.000E+01  2.000E+04 -2.115E+00
   1   12   17     1    17    6.1985E+05 -3.2641E+04   6.5249E+05  0.000E+00  0.000E+00  0.000E+00  4.10640E+01  4.390E-01  2.000E+01  2.000E+04 -1.632E+00
   1   12   18     1    18    6.5249E+05 -3.1136E+04   6.8362E+05  0.000E+00  0.000E+00  0.000E+00  4.05998E+01  4.521E-01  2.000E+01  2.000E+04 -1.557E+00
   1   12   19     1    19    6.8362E+05 -3.5522E+04   7.1915E+05  0.000E+00  0.000E+00  0.000E+00  4.01359E+01  4.655E-01  2.000E+01  2.000E+04 -1.776E+00
   1   13   20     1    20    7.1915E+05 -2.5210E+04   7.4436E+05  0.000E+00  0.000E+00  0.000E+00  3.96706E+01  4.775E-01  2.000E+01  2.000E+04 -1.261E+00
   1   14   21     1    21    7.4436E+05 -1.8141E+04   7.6250E+05  0.000E+00  0.000E+00  0.000E+00  3.92018E+01  4.859E-01  2.000E+01  2.000E+04 -9.071E-01
   1   14   22     1    22    7.6250E+05 -1.4656E+03   7.6396E+05  0.000E+00  0.000E+00  0.000E+00  3.87283E+01  4.897E-01  2.000E+01  2.000E+04 -7.328E-02
   1    9   30     2     1    5.0000E+04 -2.6602E+04   7.6602E+04  0.000E+00  0.000E+00  0.000E+00  4.02585E+01  1.335E-01  2.000E+01  2.000E+04 -1.330E+00
   1    9   29     2     2    7.6602E+04 -2.9070E+04   1.0567E+05  0.000E+00  0.000E+00  0.000E+00  4.00411E+01  1.661E-01  2.000E+01  2.000E+04 -1.453E+00
   1    9   28     2     3    1.0567E+05 -3.3361E+04   1.3903E+05  0.000E+00  0.000E+00  0.000E+00  3.98232E+01  1.982E-01  2.000E+01  2.000E+04 -1.668E+00
   1    9   27     2     4    1.3903E+05 -4.7501E+04   1.8653E+05  0.000E+00  0.000E+00  0.000E+00  3.96103E+01  2.353E-01  2.000E+01  2.000E+04 -2.375E+00
   1   10   26     2     5    1.8653E+05 -3.3457E+04   2.1999E+05  0.000E+00  0.000E+00  0.000E+00  3.93938E+01  2.688E-01  2.000E+01  2.000E+04 -1.673E+00
   1   11   25     2     6    2.1999E+05 -2.5081E+04   2.4507E+05  0.000E+00  0.000E+00  0.000E+00  3.91664E+01  2.914E-01  2.000E+01  2.000E+04 -1.254E+00
   1   12   24     2     7    2.4507E+05 -1.8465E+04   2.6354E+05  0.000E+00  0.000E+00  0.000E+00  3.89325E+01  3.075E-01  2.000E+01  2.000E+04 -9.232E-01
   1   13   23     2     8    2.6354E+05 -1.3020E+04   2.7656E+05  0.000E+00  0.000E+00  0.000E+00  3.86937E+01  3.187E-01  2.000E+01  2.000E+04 -6.510E-01
   1   14   22     2     9    2.7656E+05 -7.0164E+03   2.8357E+05  0.000E+00  0.000E+00  0.000E+00  3.84508E+01  3.258E-01  2.000E+01  2.000E+04 -3.508E-01
   1   14   22     3     1    1.0475E+06 -1.5051E+04   1.0626E+06  0.000E+00  0.000E+00  0.000E+00  3.80490E+01  4.935E-01  2.000E+01  2.000E+04 -7.526E-01
   1   15   23     3     2    1.0626E+06 -2.2928E+04   1.0855E+06  0.000E+00  0.000E+00  0.000E+00  3.71655E+01  4.988E-01  2.000E+01  2.000E+04 -1.146E+00
   1   15   24     3     3    1.0855E+06 -1.9381E+04   1.1049E+06  0.000E+00  0.000E+00  0.000E+00  3.62824E+01  5.047E-01  2.000E+01  2.000E+04 -9.690E-01
   1   15   25     3     4    1.1049E+06 -1.9119E+04   1.1240E+06  0.000E+00  0.000E+00  0.000E+00  3.53989E+01  5.100E-01  2.000E+01  2.000E+04 -9.560E-01
   1   15   26     3     5    1.1240E+06 -2.1963E+04   1.1460E+06  0.000E+00  0.000E+00  0.000E+00  3.45156E+01  5.156E-01  2.000E+01  2.000E+04 -1.098E+00
   1   16   27     3     6    1.1460E+06 -2.9129E+04   1.1751E+06  0.000E+00  0.000E+00  0.000E+00  3.36336E+01  5.225E-01  2.000E+01  2.000E+04 -1.456E+00
   1   17   28     3     7    1.1751E+06 -3.6226E+04   1.2113E+06  0.000E+00  0.000E+00  0.000E+00  3.27535E+01  5.313E-01  2.000E+01  2.000E+04 -1.811E+00
   1   18   29     3     8    1.2113E+06 -4.7255E+04   1.2586E+06  0.000E+00  0.000E+00  0.000E+00  3.18757E+01  5.424E-01  2.000E+01  2.000E+04 -2.363E+00
   1   18   30     3     9    1.2586E+06 -4.3720E+04   1.3023E+06  0.000E+00  0.000E+00  0.000E+00  3.09987E+01  5.543E-01  2.000E+01  2.000E+04 -2.186E+00



1
  VOLUMETRIC BUDGET FOR ENTIRE MODEL AT END OF TIME STEP  1 IN STRESS PERIOD   8
  ------------------------------------------------------------------------------

     CUMULATIVE VOLUMES      L**3       RATES FOR THIS TIME STEP      L**3/T
     ------------------                 ------------------------

           IN:                                      IN:
           ---                                      ---
             STORAGE =    20421544.0059               STORAGE =         620.8824
       CONSTANT HEAD =   836948390.2281         CONSTANT HEAD =     1155539.4054
            RECHARGE =    17608800.0000              RECHARGE =       27600.0000
      STREAM LEAKAGE =           0.0000        STREAM LEAKAGE =           0.0000
        MANAGED FLOW =           0.0000          MANAGED FLOW =           0.0000

            TOTAL IN =   874978734.2340              TOTAL IN =     1183760.2879

          OUT:                                     OUT:
          ----                                     ----
             STORAGE =      580908.6278               STORAGE =        1450.6564
       CONSTANT HEAD =           0.0000         CONSTANT HEAD =           0.0000
            RECHARGE =           0.0000              RECHARGE =           0.0000
      STREAM LEAKAGE =   844307857.3812        STREAM LEAKAGE =     1152309.2593
        MANAGED FLOW =    30090000.0000          MANAGED FLOW =       30000.0000

           TOTAL OUT =   874978766.0090             TOTAL OUT =     1183759.9157

            IN - OUT =         -31.7750              IN - OUT =           0.3722

 PERCENT DISCREPANCY =           0.00     PERCENT DISCREPANCY =           0.00






          TIME SUMMARY AT END OF TIME STEP   1 IN STRESS PERIOD    8
                    SECONDS     MINUTES      HOURS       DAYS        YEARS
                    -----------------------------------------------------------
   TIME STEP LENGTH 7.86240E+06 1.31040E+05  2184.0      91.000     0.24914    
 STRESS PERIOD TIME 7.86240E+06 1.31040E+05  2184.0      91.000     0.24914    
         TOTAL TIME 6.30720E+07 1.05120E+06  17520.      730.00      1.9986    
1
1
                            STRESS PERIOD NO.    9, LENGTH =   92.00000    
                            -----------------------------------------------

                              NUMBER OF TIME STEPS =     1

                               MULTIPLIER FOR DELT =     1.500

                            INITIAL TIME STEP SIZE =   92.00000    

                 RECHARGE =  5.000000E-04

 REUSING STREAM SEGMENT DATA FROM LAST STRESS PERIOD
 
 SOLVING FOR HEAD 


     5 CALLS TO PCG ROUTINE FOR TIME STEP   1 IN STRESS PERIOD    9
    17 TOTAL ITERATIONS

 HEAD/DRAWDOWN PRINTOUT FLAG = 1     TOTAL BUDGET PRINTOUT FLAG = 1
 CELL-BY-CELL FLOW TERM FLAG = 1

 OUTPUT FLAGS FOR ALL LAYERS ARE THE SAME:
   HEAD    DRAWDOWN  HEAD  DRAWDOWN
 PRINTOUT  PRINTOUT  SAVE    SAVE
 ----------------------------------
     0         0       0       0



 STREAM LISTING     PERIOD      9   STEP        1

 LAYER ROW COL. STREAM  RCH.  FLOW INTO     FLOW TO   FLOW OUT OF   OVRLND.     DIRECT     STREAM       STREAM     STREAM     STREAM   STREAMBED  STREAMBED
                SEG.NO.  NO.  STRM. RCH.    AQUIFER    STRM. RCH.    RUNOFF     PRECIP       ET          HEAD       DEPTH      WIDTH   CONDCTNC.   GRADIENT

   1   13    1     1     1    1.0000E+05 -2.7688E+04   1.2769E+05  0.000E+00  0.000E+00  0.000E+00  4.84177E+01  1.564E-01  2.000E+01  2.000E+04 -1.384E+00
   1   13    2     1     2    1.2769E+05 -3.7403E+04   1.6509E+05  0.000E+00  0.000E+00  0.000E+00  4.79659E+01  1.818E-01  2.000E+01  2.000E+04 -1.870E+00
   1   14    3     1     3    1.6509E+05 -3.2876E+04   1.9797E+05  0.000E+00  0.000E+00  0.000E+00  4.75137E+01  2.069E-01  2.000E+01  2.000E+04 -1.644E+00
   1   15    4     1     4    1.9797E+05 -3.2107E+04   2.3007E+05  0.000E+00  0.000E+00  0.000E+00  4.70579E+01  2.283E-01  2.000E+01  2.000E+04 -1.605E+00
   1   16    5     1     5    2.3007E+05 -3.3621E+04   2.6369E+05  0.000E+00  0.000E+00  0.000E+00  4.66011E+01  2.488E-01  2.000E+01  2.000E+04 -1.681E+00
   1   16    6     1     6    2.6369E+05 -2.9364E+04   2.9306E+05  0.000E+00  0.000E+00  0.000E+00  4.61424E+01  2.674E-01  2.000E+01  2.000E+04 -1.468E+00
   1   16    7     1     7    2.9306E+05 -2.9167E+04   3.2223E+05  0.000E+00  0.000E+00  0.000E+00  4.56816E+01  2.839E-01  2.000E+01  2.000E+04 -1.458E+00
   1   16    8     1     8    3.2223E+05 -2.9315E+04   3.5154E+05  0.000E+00  0.000E+00  0.000E+00  4.52202E+01  2.998E-01  2.000E+01  2.000E+04 -1.466E+00
   1   16    9     1     9    3.5154E+05 -2.9334E+04   3.8087E+05  0.000E+00  0.000E+00  0.000E+00  4.47584E+01  3.152E-01  2.000E+01  2.000E+04 -1.467E+00
   1   16   10     1    10    3.8087E+05 -2.9249E+04   4.1012E+05  0.000E+00  0.000E+00  0.000E+00  4.42960E+01  3.301E-01  2.000E+01  2.000E+04 -1.462E+00
   1   16   11     1    11    4.1012E+05 -2.9606E+04   4.3973E+05  0.000E+00  0.000E+00  0.000E+00  4.38332E+01  3.446E-01  2.000E+01  2.000E+04 -1.480E+00
   1   16   12     1    12    4.3973E+05 -3.4333E+04   4.7406E+05  0.000E+00  0.000E+00  0.000E+00  4.33713E+01  3.599E-01  2.000E+01  2.000E+04 -1.717E+00
   1   15   13     1    13    4.7406E+05 -3.2470E+04   5.0653E+05  0.000E+00  0.000E+00  0.000E+00  4.29096E+01  3.755E-01  2.000E+01  2.000E+04 -1.624E+00
   1   14   14     1    14    5.0653E+05 -3.2636E+04   5.3917E+05  0.000E+00  0.000E+00  0.000E+00  4.24471E+01  3.903E-01  2.000E+01  2.000E+04 -1.632E+00
   1   13   15     1    15    5.3917E+05 -3.5043E+04   5.7421E+05  0.000E+00  0.000E+00  0.000E+00  4.19848E+01  4.052E-01  2.000E+01  2.000E+04 -1.752E+00
   1   12   16     1    16    5.7421E+05 -4.2042E+04   6.1626E+05  0.000E+00  0.000E+00  0.000E+00  4.15241E+01  4.218E-01  2.000E+01  2.000E+04 -2.102E+00
   1   12   17     1    17    6.1626E+05 -3.2430E+04   6.4869E+05  0.000E+00  0.000E+00  0.000E+00  4.10625E+01  4.375E-01  2.000E+01  2.000E+04 -1.622E+00
   1   12   18     1    18    6.4869E+05 -3.0935E+04   6.7962E+05  0.000E+00  0.000E+00  0.000E+00  4.05982E+01  4.505E-01  2.000E+01  2.000E+04 -1.547E+00
   1   12   19     1    19    6.7962E+05 -3.5311E+04   7.1493E+05  0.000E+00  0.000E+00  0.000E+00  4.01343E+01  4.638E-01  2.000E+01  2.000E+04 -1.766E+00
   1   13   20     1    20    7.1493E+05 -2.4998E+04   7.3993E+05  0.000E+00  0.000E+00  0.000E+00  3.96690E+01  4.758E-01  2.000E+01  2.000E+04 -1.250E+00
   1   14   21     1    21    7.3993E+05 -1.7951E+04   7.5788E+05  0.000E+00  0.000E+00  0.000E+00  3.92001E+01  4.842E-01  2.000E+01  2.000E+04 -8.975E-01
   1   14   22     1    22    7.5788E+05 -1.4104E+03   7.5929E+05  0.000E+00  0.000E+00  0.000E+00  3.87265E+01  4.879E-01  2.000E+01  2.000E+04 -7.052E-02
   1    9   30     2     1    5.0000E+04 -2.6481E+04   7.6481E+04  0.000E+00  0.000E+00  0.000E+00  4.02584E+01  1.334E-01  2.000E+01  2.000E+04 -1.324E+00
   1    9   29     2     2    7.6481E+04 -2.8948E+04   1.0543E+05  0.000E+00  0.000E+00  0.000E+00  4.00409E+01  1.659E-01  2.000E+01  2.000E+04 -1.447E+00
   1    9   28     2     3    1.0543E+05 -3.3234E+04   1.3866E+05  0.000E+00  0.000E+00  0.000E+00  3.98229E+01  1.979E-01  2.000E+01  2.000E+04 -1.662E+00
   1    9   27     2     4    1.3866E+05 -4.7343E+04   1.8601E+05  0.000E+00  0.000E+00  0.000E+00  3.96099E+01  2.349E-01  2.000E+01  2.000E+04 -2.367E+00
   1   10   26     2     5    1.8601E+05 -3.3305E+04   2.1931E+05  0.000E+00  0.000E+00  0.000E+00  3.93933E+01  2.683E-01  2.000E+01  2.000E+04 -1.665E+00
   1   11   25     2     6    2.1931E+05 -2.4947E+04   2.4426E+05  0.000E+00  0.000E+00  0.000E+00  3.91658E+01  2.908E-01  2.000E+01  2.000E+04 -1.247E+00
   1   12   24     2     7    2.4426E+05 -1.8351E+04   2.6261E+05  0.000E+00  0.000E+00  0.000E+00  3.89318E+01  3.068E-01  2.000E+01  2.000E+04 -9.175E-01
   1   13   23     2     8    2.6261E+05 -1.2919E+04   2.7553E+05  0.000E+00  0.000E+00  0.000E+00  3.86930E+01  3.180E-01  2.000E+01  2.000E+04 -6.459E-01
   1   14   22     2     9    2.7553E+05 -6.9403E+03   2.8247E+05  0.000E+00  0.000E+00  0.000E+00  3.84500E+01  3.250E-01  2.000E+01  2.000E+04 -3.470E-01
   1   14   22     3     1    1.0418E+06 -1.4993E+04   1.0568E+06  0.000E+00  0.000E+00  0.000E+00  3.80474E+01  4.918E-01  2.000E+01  2.000E+04 -7.497E-01
   1   15   23     3     2    1.0568E+06 -2.2776E+04   1.0795E+06  0.000E+00  0.000E+00  0.000E+00  3.71638E+01  4.971E-01  2.000E+01  2.000E+04 -1.139E+00
   1   15   24     3     3    1.0795E+06 -1.9284E+04   1.0988E+06  0.000E+00  0.000E+00  0.000E+00  3.62808E+01  5.030E-01  2.000E+01  2.000E+04 -9.642E-01
   1   15   25     3     4    1.0988E+06 -1.9048E+04   1.1179E+06  0.000E+00  0.000E+00  0.000E+00  3.53972E+01  5.083E-01  2.000E+01  2.000E+04 -9.524E-01
   1   15   26     3     5    1.1179E+06 -2.1881E+04   1.1397E+06  0.000E+00  0.000E+00  0.000E+00  3.45139E+01  5.139E-01  2.000E+01  2.000E+04 -1.094E+00
   1   16   27     3     6    1.1397E+06 -2.8994E+04   1.1687E+06  0.000E+00  0.000E+00  0.000E+00  3.36319E+01  5.208E-01  2.000E+01  2.000E+04 -1.450E+00
   1   17   28     3     7    1.1687E+06 -3.6075E+04   1.2048E+06  0.000E+00  0.000E+00  0.000E+00  3.27518E+01  5.296E-01  2.000E+01  2.000E+04 -1.804E+00
   1   18   29     3     8    1.2048E+06 -4.7104E+04   1.2519E+06  0.000E+00  0.000E+00  0.000E+00  3.18740E+01  5.406E-01  2.000E+01  2.000E+04 -2.355E+00
   1   18   30     3     9    1.2519E+06 -4.3597E+04   1.2955E+06  0.000E+00  0.000E+00  0.000E+00  3.09970E+01  5.525E-01  2.000E+01  2.000E+04 -2.180E+00



1
  VOLUMETRIC BUDGET FOR ENTIRE MODEL AT END OF TIME STEP  1 IN STRESS PERIOD   9
  ------------------------------------------------------------------------------

     CUMULATIVE VOLUMES      L**3       RATES FOR THIS TIME STEP      L**3/T
     ------------------                 ------------------------

           IN:                                      IN:
           ---                                      ---
             STORAGE =    20478417.6222               STORAGE =         618.1915
       CONSTANT HEAD =   943769015.7746         CONSTANT HEAD =     1161093.7559
            RECHARGE =    18878400.0000              RECHARGE =       13800.0000
      STREAM LEAKAGE =           0.0000        STREAM LEAKAGE =           0.0000
        MANAGED FLOW =           0.0000          MANAGED FLOW =           0.0000

            TOTAL IN =   983125833.3968              TOTAL IN =     1175511.9474

          OUT:                                     OUT:
          ----                                     ----
             STORAGE =      580908.6278               STORAGE =           0.0000
       CONSTANT HEAD =           0.0000         CONSTANT HEAD =           0.0000
            RECHARGE =           0.0000              RECHARGE =           0.0000
      STREAM LEAKAGE =   949694973.7531        STREAM LEAKAGE =     1145512.1345
        MANAGED FLOW =    32850000.0000          MANAGED FLOW =       30000.0000

           TOTAL OUT =   983125882.3809             TOTAL OUT =     1175512.1345

            IN - OUT =         -48.9841              IN - OUT =          -0.1871

 PERCENT DISCREPANCY =           0.00     PERCENT DISCREPANCY =           0.00






          TIME SUMMARY AT END OF TIME STEP   1 IN STRESS PERIOD    9
                    SECONDS     MINUTES      HOURS       DAYS        YEARS
                    -----------------------------------------------------------
   TIME STEP LENGTH 7.94880E+06 1.32480E+05  2208.0      92.000     0.25188    
 STRESS PERIOD TIME 7.94880E+06 1.32480E+05  2208.0      92.000     0.25188    
         TOTAL TIME 7.10208E+07 1.18368E+06  19728.      822.00      2.2505    
1
1
                            STRESS PERIOD NO.   10, LENGTH =   91.00000    
                            -----------------------------------------------

                              NUMBER OF TIME STEPS =     1

                               MULTIPLIER FOR DELT =     1.500

                            INITIAL TIME STEP SIZE =   91.00000    

                 RECHARGE =  2.000000E-03

 REUSING STREAM SEGMENT DATA FROM LAST STRESS PERIOD
 
 SOLVING FOR HEAD 


     5 CALLS TO PCG ROUTINE FOR TIME STEP   1 IN STRESS PERIOD   10
    19 TOTAL ITERATIONS

 HEAD/DRAWDOWN PRINTOUT FLAG = 1     TOTAL BUDGET PRINTOUT FLAG = 1
 CELL-BY-CELL FLOW TERM FLAG = 1

 OUTPUT FLAGS FOR ALL LAYERS ARE THE SAME:
   HEAD    DRAWDOWN  HEAD  DRAWDOWN
 PRINTOUT  PRINTOUT  SAVE    SAVE
 ----------------------------------
     0         0       0       0



 STREAM LISTING     PERIOD     10   STEP        1

 LAYER ROW COL. STREAM  RCH.  FLOW INTO     FLOW TO   FLOW OUT OF   OVRLND.     DIRECT     STREAM       STREAM     STREAM     STREAM   STREAMBED  STREAMBED
                SEG.NO.  NO.  STRM. RCH.    AQUIFER    STRM. RCH.    RUNOFF     PRECIP       ET          HEAD       DEPTH      WIDTH   CONDCTNC.   GRADIENT

   1   13    1     1     1    1.0000E+05 -2.8360E+04   1.2836E+05  0.000E+00  0.000E+00  0.000E+00  4.84180E+01  1.566E-01  2.000E+01  2.000E+04 -1.418E+00
   1   13    2     1     2    1.2836E+05 -3.8209E+04   1.6657E+05  0.000E+00  0.000E+00  0.000E+00  4.79667E+01  1.826E-01  2.000E+01  2.000E+04 -1.910E+00
   1   14    3     1     3    1.6657E+05 -3.3671E+04   2.0024E+05  0.000E+00  0.000E+00  0.000E+00  4.75150E+01  2.081E-01  2.000E+01  2.000E+04 -1.684E+00
   1   15    4     1     4    2.0024E+05 -3.2883E+04   2.3312E+05  0.000E+00  0.000E+00  0.000E+00  4.70596E+01  2.300E-01  2.000E+01  2.000E+04 -1.644E+00
   1   16    5     1     5    2.3312E+05 -3.4345E+04   2.6747E+05  0.000E+00  0.000E+00  0.000E+00  4.66031E+01  2.508E-01  2.000E+01  2.000E+04 -1.717E+00
   1   16    6     1     6    2.6747E+05 -3.0014E+04   2.9748E+05  0.000E+00  0.000E+00  0.000E+00  4.61447E+01  2.697E-01  2.000E+01  2.000E+04 -1.501E+00
   1   16    7     1     7    2.9748E+05 -2.9841E+04   3.2732E+05  0.000E+00  0.000E+00  0.000E+00  4.56842E+01  2.865E-01  2.000E+01  2.000E+04 -1.492E+00
   1   16    8     1     8    3.2732E+05 -3.0036E+04   3.5736E+05  0.000E+00  0.000E+00  0.000E+00  4.52231E+01  3.027E-01  2.000E+01  2.000E+04 -1.502E+00
   1   16    9     1     9    3.5736E+05 -3.0129E+04   3.8749E+05  0.000E+00  0.000E+00  0.000E+00  4.47616E+01  3.184E-01  2.000E+01  2.000E+04 -1.506E+00
   1   16   10     1    10    3.8749E+05 -3.0168E+04   4.1766E+05  0.000E+00  0.000E+00  0.000E+00  4.42995E+01  3.336E-01  2.000E+01  2.000E+04 -1.508E+00
   1   16   11     1    11    4.1766E+05 -3.0792E+04   4.4845E+05  0.000E+00  0.000E+00  0.000E+00  4.38372E+01  3.485E-01  2.000E+01  2.000E+04 -1.540E+00
   1   16   12     1    12    4.4845E+05 -3.6399E+04   4.8485E+05  0.000E+00  0.000E+00  0.000E+00  4.33759E+01  3.645E-01  2.000E+01  2.000E+04 -1.820E+00
   1   15   13     1    13    4.8485E+05 -3.5195E+04   5.2004E+05  0.000E+00  0.000E+00  0.000E+00  4.29151E+01  3.810E-01  2.000E+01  2.000E+04 -1.760E+00
   1   14   14     1    14    5.2004E+05 -3.5800E+04   5.5584E+05  0.000E+00  0.000E+00  0.000E+00  4.24538E+01  3.970E-01  2.000E+01  2.000E+04 -1.790E+00
   1   13   15     1    15    5.5584E+05 -3.8021E+04   5.9386E+05  0.000E+00  0.000E+00  0.000E+00  4.19926E+01  4.131E-01  2.000E+01  2.000E+04 -1.901E+00
   1   12   16     1    16    5.9386E+05 -4.4056E+04   6.3792E+05  0.000E+00  0.000E+00  0.000E+00  4.15328E+01  4.306E-01  2.000E+01  2.000E+04 -2.203E+00
   1   12   17     1    17    6.3792E+05 -3.4459E+04   6.7238E+05  0.000E+00  0.000E+00  0.000E+00  4.10718E+01  4.468E-01  2.000E+01  2.000E+04 -1.723E+00
   1   12   18     1    18    6.7238E+05 -3.2794E+04   7.0517E+05  0.000E+00  0.000E+00  0.000E+00  4.06082E+01  4.604E-01  2.000E+01  2.000E+04 -1.640E+00
   1   12   19     1    19    7.0517E+05 -3.6850E+04   7.4202E+05  0.000E+00  0.000E+00  0.000E+00  4.01447E+01  4.743E-01  2.000E+01  2.000E+04 -1.842E+00
   1   13   20     1    20    7.4202E+05 -2.7013E+04   7.6904E+05  0.000E+00  0.000E+00  0.000E+00  3.96799E+01  4.867E-01  2.000E+01  2.000E+04 -1.351E+00
   1   14   21     1    21    7.6904E+05 -1.9761E+04   7.8880E+05  0.000E+00  0.000E+00  0.000E+00  3.92116E+01  4.957E-01  2.000E+01  2.000E+04 -9.880E-01
   1   14   22     1    22    7.8880E+05 -1.1463E+03   7.8994E+05  0.000E+00  0.000E+00  0.000E+00  3.87383E+01  4.997E-01  2.000E+01  2.000E+04 -5.732E-02
   1    9   30     2     1    5.0000E+04 -2.6479E+04   7.6479E+04  0.000E+00  0.000E+00  0.000E+00  4.02584E+01  1.334E-01  2.000E+01  2.000E+04 -1.324E+00
   1    9   29     2     2    7.6479E+04 -2.8926E+04   1.0541E+05  0.000E+00  0.000E+00  0.000E+00  4.00409E+01  1.659E-01  2.000E+01  2.000E+04 -1.446E+00
   1    9   28     2     3    1.0541E+05 -3.3193E+04   1.3860E+05  0.000E+00  0.000E+00  0.000E+00  3.98229E+01  1.979E-01  2.000E+01  2.000E+04 -1.660E+00
   1    9   27     2     4    1.3860E+05 -4.7360E+04   1.8596E+05  0.000E+00  0.000E+00  0.000E+00  3.96098E+01  2.348E-01  2.000E+01  2.000E+04 -2.368E+00
   1   10   26     2     5    1.8596E+05 -3.2626E+04   2.1859E+05  0.000E+00  0.000E+00  0.000E+00  3.93930E+01  2.680E-01  2.000E+01  2.000E+04 -1.631E+00
   1   11   25     2     6    2.1859E+05 -2.2924E+04   2.4151E+05  0.000E+00  0.000E+00  0.000E+00  3.91645E+01  2.895E-01  2.000E+01  2.000E+04 -1.146E+00
   1   12   24     2     7    2.4151E+05 -1.5000E+04   2.5651E+05  0.000E+00  0.000E+00  0.000E+00  3.89286E+01  3.036E-01  2.000E+01  2.000E+04 -7.500E-01
   1   13   23     2     8    2.5651E+05 -1.0251E+04   2.6676E+05  0.000E+00  0.000E+00  0.000E+00  3.86877E+01  3.127E-01  2.000E+01  2.000E+04 -5.126E-01
   1   14   22     2     9    2.6676E+05 -7.0346E+03   2.7380E+05  0.000E+00  0.000E+00  0.000E+00  3.84439E+01  3.189E-01  2.000E+01  2.000E+04 -3.517E-01
   1   14   22     3     1    1.0637E+06 -1.4842E+04   1.0786E+06  0.000E+00  0.000E+00  0.000E+00  3.80535E+01  4.980E-01  2.000E+01  2.000E+04 -7.421E-01
   1   15   23     3     2    1.0786E+06 -2.2075E+04   1.1007E+06  0.000E+00  0.000E+00  0.000E+00  3.71698E+01  5.031E-01  2.000E+01  2.000E+04 -1.104E+00
   1   15   24     3     3    1.1007E+06 -1.5062E+04   1.1157E+06  0.000E+00  0.000E+00  0.000E+00  3.62860E+01  5.082E-01  2.000E+01  2.000E+04 -7.531E-01
   1   15   25     3     4    1.1157E+06 -9.2119E+03   1.1249E+06  0.000E+00  0.000E+00  0.000E+00  3.54005E+01  5.116E-01  2.000E+01  2.000E+04 -4.606E-01
   1   15   26     3     5    1.1249E+06 -1.6469E+04   1.1414E+06  0.000E+00  0.000E+00  0.000E+00  3.45151E+01  5.151E-01  2.000E+01  2.000E+04 -8.234E-01
   1   16   27     3     6    1.1414E+06 -2.7761E+04   1.1692E+06  0.000E+00  0.000E+00  0.000E+00  3.36322E+01  5.211E-01  2.000E+01  2.000E+04 -1.388E+00
   1   17   28     3     7    1.1692E+06 -3.5893E+04   1.2051E+06  0.000E+00  0.000E+00  0.000E+00  3.27519E+01  5.297E-01  2.000E+01  2.000E+04 -1.795E+00
   1   18   29     3     8    1.2051E+06 -4.7335E+04   1.2524E+06  0.000E+00  0.000E+00  0.000E+00  3.18741E+01  5.407E-01  2.000E+01  2.000E+04 -2.367E+00
   1   18   30     3     9    1.2524E+06 -4.3738E+04   1.2961E+06  0.000E+00  0.000E+00  0.000E+00  3.09971E+01  5.527E-01  2.000E+01  2.000E+04 -2.187E+00



1
  VOLUMETRIC BUDGET FOR ENTIRE MODEL AT END OF TIME STEP  1 IN STRESS PERIOD  10
  ------------------------------------------------------------------------------

     CUMULATIVE VOLUMES      L**3       RATES FOR THIS TIME STEP      L**3/T
     ------------------                 ------------------------

           IN:                                      IN:
           ---                                      ---
             STORAGE =    20514637.4699               STORAGE =         398.0203
       CONSTANT HEAD =  1047398873.2867         CONSTANT HEAD =     1138789.6430
            RECHARGE =    23901600.0000              RECHARGE =       55200.0000
      STREAM LEAKAGE =           0.0000        STREAM LEAKAGE =           0.0000
        MANAGED FLOW =           0.0000          MANAGED FLOW =           0.0000

            TOTAL IN =  1091815110.7566              TOTAL IN =     1194387.6633

          OUT:                                     OUT:
          ----                                     ----
             STORAGE =      877686.3942               STORAGE =        3261.2941
       CONSTANT HEAD =           0.0000         CONSTANT HEAD =           0.0000
            RECHARGE =           0.0000              RECHARGE =           0.0000
      STREAM LEAKAGE =  1053992448.2812        STREAM LEAKAGE =     1146126.0937
        MANAGED FLOW =    36945000.0000          MANAGED FLOW =       45000.0000

           TOTAL OUT =  1091815134.6754             TOTAL OUT =     1194387.3879

            IN - OUT =         -23.9188              IN - OUT =           0.2754

 PERCENT DISCREPANCY =           0.00     PERCENT DISCREPANCY =           0.00






          TIME SUMMARY AT END OF TIME STEP   1 IN STRESS PERIOD   10
                    SECONDS     MINUTES      HOURS       DAYS        YEARS
                    -----------------------------------------------------------
   TIME STEP LENGTH 7.86240E+06 1.31040E+05  2184.0      91.000     0.24914    
 STRESS PERIOD TIME 7.86240E+06 1.31040E+05  2184.0      91.000     0.24914    
         TOTAL TIME 7.88832E+07 1.31472E+06  21912.      913.00      2.4997    
1
1
                            STRESS PERIOD NO.   11, LENGTH =   91.00000    
                            -----------------------------------------------

                              NUMBER OF TIME STEPS =     1

                               MULTIPLIER FOR DELT =     1.500

                            INITIAL TIME STEP SIZE =   91.00000    

                 RECHARGE =   0.00000    

 REUSING STREAM SEGMENT DATA FROM LAST STRESS PERIOD
 
 SOLVING FOR HEAD 


     5 CALLS TO PCG ROUTINE FOR TIME STEP   1 IN STRESS PERIOD   11
    19 TOTAL ITERATIONS

 HEAD/DRAWDOWN PRINTOUT FLAG = 1     TOTAL BUDGET PRINTOUT FLAG = 1
 CELL-BY-CELL FLOW TERM FLAG = 1

 OUTPUT FLAGS FOR ALL LAYERS ARE THE SAME:
   HEAD    DRAWDOWN  HEAD  DRAWDOWN
 PRINTOUT  PRINTOUT  SAVE    SAVE
 ----------------------------------
     0         0       0       0



 STREAM LISTING     PERIOD     11   STEP        1

 LAYER ROW COL. STREAM  RCH.  FLOW INTO     FLOW TO   FLOW OUT OF   OVRLND.     DIRECT     STREAM       STREAM     STREAM     STREAM   STREAMBED  STREAMBED
                SEG.NO.  NO.  STRM. RCH.    AQUIFER    STRM. RCH.    RUNOFF     PRECIP       ET          HEAD       DEPTH      WIDTH   CONDCTNC.   GRADIENT

   1   13    1     1     1    1.0000E+05 -2.7510E+04   1.2751E+05  0.000E+00  0.000E+00  0.000E+00  4.84176E+01  1.563E-01  2.000E+01  2.000E+04 -1.375E+00
   1   13    2     1     2    1.2751E+05 -3.7193E+04   1.6470E+05  0.000E+00  0.000E+00  0.000E+00  4.79657E+01  1.816E-01  2.000E+01  2.000E+04 -1.860E+00
   1   14    3     1     3    1.6470E+05 -3.2674E+04   1.9738E+05  0.000E+00  0.000E+00  0.000E+00  4.75134E+01  2.065E-01  2.000E+01  2.000E+04 -1.634E+00
   1   15    4     1     4    1.9738E+05 -3.1920E+04   2.2930E+05  0.000E+00  0.000E+00  0.000E+00  4.70575E+01  2.279E-01  2.000E+01  2.000E+04 -1.596E+00
   1   16    5     1     5    2.2930E+05 -3.3468E+04   2.6277E+05  0.000E+00  0.000E+00  0.000E+00  4.66005E+01  2.483E-01  2.000E+01  2.000E+04 -1.673E+00
   1   16    6     1     6    2.6277E+05 -2.9247E+04   2.9201E+05  0.000E+00  0.000E+00  0.000E+00  4.61418E+01  2.668E-01  2.000E+01  2.000E+04 -1.462E+00
   1   16    7     1     7    2.9201E+05 -2.9073E+04   3.2109E+05  0.000E+00  0.000E+00  0.000E+00  4.56810E+01  2.833E-01  2.000E+01  2.000E+04 -1.454E+00
   1   16    8     1     8    3.2109E+05 -2.9254E+04   3.5034E+05  0.000E+00  0.000E+00  0.000E+00  4.52196E+01  2.992E-01  2.000E+01  2.000E+04 -1.463E+00
   1   16    9     1     9    3.5034E+05 -2.9326E+04   3.7967E+05  0.000E+00  0.000E+00  0.000E+00  4.47577E+01  3.146E-01  2.000E+01  2.000E+04 -1.466E+00
   1   16   10     1    10    3.7967E+05 -2.9331E+04   4.0900E+05  0.000E+00  0.000E+00  0.000E+00  4.42954E+01  3.295E-01  2.000E+01  2.000E+04 -1.467E+00
   1   16   11     1    11    4.0900E+05 -2.9868E+04   4.3886E+05  0.000E+00  0.000E+00  0.000E+00  4.38327E+01  3.441E-01  2.000E+01  2.000E+04 -1.493E+00
   1   16   12     1    12    4.3886E+05 -3.5115E+04   4.7398E+05  0.000E+00  0.000E+00  0.000E+00  4.33711E+01  3.597E-01  2.000E+01  2.000E+04 -1.756E+00
   1   15   13     1    13    4.7398E+05 -3.3632E+04   5.0761E+05  0.000E+00  0.000E+00  0.000E+00  4.29098E+01  3.757E-01  2.000E+01  2.000E+04 -1.682E+00
   1   14   14     1    14    5.0761E+05 -3.4069E+04   5.4168E+05  0.000E+00  0.000E+00  0.000E+00  4.24479E+01  3.911E-01  2.000E+01  2.000E+04 -1.703E+00
   1   13   15     1    15    5.4168E+05 -3.6347E+04   5.7803E+05  0.000E+00  0.000E+00  0.000E+00  4.19861E+01  4.066E-01  2.000E+01  2.000E+04 -1.817E+00
   1   12   16     1    16    5.7803E+05 -4.2700E+04   6.2073E+05  0.000E+00  0.000E+00  0.000E+00  4.15259E+01  4.236E-01  2.000E+01  2.000E+04 -2.135E+00
   1   12   17     1    17    6.2073E+05 -3.3231E+04   6.5396E+05  0.000E+00  0.000E+00  0.000E+00  4.10645E+01  4.395E-01  2.000E+01  2.000E+04 -1.662E+00
   1   12   18     1    18    6.5396E+05 -3.1633E+04   6.8559E+05  0.000E+00  0.000E+00  0.000E+00  4.06005E+01  4.528E-01  2.000E+01  2.000E+04 -1.582E+00
   1   12   19     1    19    6.8559E+05 -3.5702E+04   7.2129E+05  0.000E+00  0.000E+00  0.000E+00  4.01368E+01  4.663E-01  2.000E+01  2.000E+04 -1.785E+00
   1   13   20     1    20    7.2129E+05 -2.5720E+04   7.4701E+05  0.000E+00  0.000E+00  0.000E+00  3.96716E+01  4.784E-01  2.000E+01  2.000E+04 -1.286E+00
   1   14   21     1    21    7.4701E+05 -1.8572E+04   7.6559E+05  0.000E+00  0.000E+00  0.000E+00  3.92029E+01  4.870E-01  2.000E+01  2.000E+04 -9.286E-01
   1   14   22     1    22    7.6559E+05 -7.3786E+02   7.6632E+05  0.000E+00  0.000E+00  0.000E+00  3.87294E+01  4.907E-01  2.000E+01  2.000E+04 -3.689E-02
   1    9   30     2     1    5.0000E+04 -2.5821E+04   7.5821E+04  0.000E+00  0.000E+00  0.000E+00  4.02580E+01  1.330E-01  2.000E+01  2.000E+04 -1.291E+00
   1    9   29     2     2    7.5821E+04 -2.8265E+04   1.0409E+05  0.000E+00  0.000E+00  0.000E+00  4.00398E+01  1.648E-01  2.000E+01  2.000E+04 -1.413E+00
   1    9   28     2     3    1.0409E+05 -3.2509E+04   1.3659E+05  0.000E+00  0.000E+00  0.000E+00  3.98213E+01  1.963E-01  2.000E+01  2.000E+04 -1.625E+00
   1    9   27     2     4    1.3659E+05 -4.6532E+04   1.8313E+05  0.000E+00  0.000E+00  0.000E+00  3.96077E+01  2.327E-01  2.000E+01  2.000E+04 -2.327E+00
   1   10   26     2     5    1.8313E+05 -3.1672E+04   2.1480E+05  0.000E+00  0.000E+00  0.000E+00  3.93904E+01  2.654E-01  2.000E+01  2.000E+04 -1.584E+00
   1   11   25     2     6    2.1480E+05 -2.1831E+04   2.3663E+05  0.000E+00  0.000E+00  0.000E+00  3.91612E+01  2.862E-01  2.000E+01  2.000E+04 -1.092E+00
   1   12   24     2     7    2.3663E+05 -1.3823E+04   2.5045E+05  0.000E+00  0.000E+00  0.000E+00  3.89246E+01  2.996E-01  2.000E+01  2.000E+04 -6.911E-01
   1   13   23     2     8    2.5045E+05 -9.2554E+03   2.5971E+05  0.000E+00  0.000E+00  0.000E+00  3.86830E+01  3.080E-01  2.000E+01  2.000E+04 -4.628E-01
   1   14   22     2     9    2.5971E+05 -6.5511E+03   2.6626E+05  0.000E+00  0.000E+00  0.000E+00  3.84387E+01  3.137E-01  2.000E+01  2.000E+04 -3.276E-01
   1   14   22     3     1    1.0326E+06 -1.4431E+04   1.0470E+06  0.000E+00  0.000E+00  0.000E+00  3.80447E+01  4.892E-01  2.000E+01  2.000E+04 -7.215E-01
   1   15   23     3     2    1.0470E+06 -2.0991E+04   1.0680E+06  0.000E+00  0.000E+00  0.000E+00  3.71608E+01  4.942E-01  2.000E+01  2.000E+04 -1.050E+00
   1   15   24     3     3    1.0680E+06 -1.3866E+04   1.0819E+06  0.000E+00  0.000E+00  0.000E+00  3.62768E+01  4.990E-01  2.000E+01  2.000E+04 -6.933E-01
   1   15   25     3     4    1.0819E+06 -7.4425E+03   1.0893E+06  0.000E+00  0.000E+00  0.000E+00  3.53909E+01  5.020E-01  2.000E+01  2.000E+04 -3.721E-01
   1   15   26     3     5    1.0893E+06 -1.5131E+04   1.1044E+06  0.000E+00  0.000E+00  0.000E+00  3.45051E+01  5.051E-01  2.000E+01  2.000E+04 -7.565E-01
   1   16   27     3     6    1.1044E+06 -2.6759E+04   1.1312E+06  0.000E+00  0.000E+00  0.000E+00  3.36220E+01  5.109E-01  2.000E+01  2.000E+04 -1.338E+00
   1   17   28     3     7    1.1312E+06 -3.5010E+04   1.1662E+06  0.000E+00  0.000E+00  0.000E+00  3.27415E+01  5.193E-01  2.000E+01  2.000E+04 -1.751E+00
   1   18   29     3     8    1.1662E+06 -4.6569E+04   1.2128E+06  0.000E+00  0.000E+00  0.000E+00  3.18636E+01  5.303E-01  2.000E+01  2.000E+04 -2.328E+00
   1   18   30     3     9    1.2128E+06 -4.3103E+04   1.2559E+06  0.000E+00  0.000E+00  0.000E+00  3.09866E+01  5.422E-01  2.000E+01  2.000E+04 -2.155E+00



1
  VOLUMETRIC BUDGET FOR ENTIRE MODEL AT END OF TIME STEP  1 IN STRESS PERIOD  11
  ------------------------------------------------------------------------------

     CUMULATIVE VOLUMES      L**3       RATES FOR THIS TIME STEP      L**3/T
     ------------------                 ------------------------

           IN:                                      IN:
           ---                                      ---
             STORAGE =    20793831.2646               STORAGE =        3068.0637
       CONSTANT HEAD =  1153215154.4930         CONSTANT HEAD =     1162816.2770
            RECHARGE =    23901600.0000              RECHARGE =           0.0000
      STREAM LEAKAGE =           0.0000        STREAM LEAKAGE =           0.0000
        MANAGED FLOW =           0.0000          MANAGED FLOW =           0.0000

            TOTAL IN =  1197910585.7577              TOTAL IN =     1165884.3407

          OUT:                                     OUT:
          ----                                     ----
             STORAGE =      877686.3942               STORAGE =           0.0000
       CONSTANT HEAD =           0.0000         CONSTANT HEAD =           0.0000
            RECHARGE =           0.0000              RECHARGE =           0.0000
      STREAM LEAKAGE =  1154627951.9484        STREAM LEAKAGE =     1105884.6557
        MANAGED FLOW =    42405000.0000          MANAGED FLOW =       60000.0000

           TOTAL OUT =  1197910638.3426             TOTAL OUT =     1165884.6557

            IN - OUT =         -52.5849              IN - OUT =          -0.3150

 PERCENT DISCREPANCY =           0.00     PERCENT DISCREPANCY =           0.00






          TIME SUMMARY AT END OF TIME STEP   1 IN STRESS PERIOD   11
                    SECONDS     MINUTES      HOURS       DAYS        YEARS
                    -----------------------------------------------------------
   TIME STEP LENGTH 7.86240E+06 1.31040E+05  2184.0      91.000     0.24914    
 STRESS PERIOD TIME 7.86240E+06 1.31040E+05  2184.0      91.000     0.24914    
         TOTAL TIME 8.67456E+07 1.44576E+06  24096.      1004.0      2.7488    
1
1
                            STRESS PERIOD NO.   12, LENGTH =   91.00000    
                            -----------------------------------------------

                              NUMBER OF TIME STEPS =     1

                               MULTIPLIER FOR DELT =     1.500

                            INITIAL TIME STEP SIZE =   91.00000    

                 RECHARGE =  1.000000E-03

 REUSING STREAM SEGMENT DATA FROM LAST STRESS PERIOD
 
 SOLVING FOR HEAD 


     5 CALLS TO PCG ROUTINE FOR TIME STEP   1 IN STRESS PERIOD   12
    18 TOTAL ITERATIONS

 HEAD/DRAWDOWN PRINTOUT FLAG = 1     TOTAL BUDGET PRINTOUT FLAG = 1
 CELL-BY-CELL FLOW TERM FLAG = 1

 OUTPUT FLAGS FOR ALL LAYERS ARE THE SAME:
   HEAD    DRAWDOWN  HEAD  DRAWDOWN
 PRINTOUT  PRINTOUT  SAVE    SAVE
 ----------------------------------
     0         0       0       0



 STREAM LISTING     PERIOD     12   STEP        1

 LAYER ROW COL. STREAM  RCH.  FLOW INTO     FLOW TO   FLOW OUT OF   OVRLND.     DIRECT     STREAM       STREAM     STREAM     STREAM   STREAMBED  STREAMBED
                SEG.NO.  NO.  STRM. RCH.    AQUIFER    STRM. RCH.    RUNOFF     PRECIP       ET          HEAD       DEPTH      WIDTH   CONDCTNC.   GRADIENT

   1   13    1     1     1    1.0000E+05 -2.7889E+04   1.2789E+05  0.000E+00  0.000E+00  0.000E+00  4.84178E+01  1.564E-01  2.000E+01  2.000E+04 -1.394E+00
   1   13    2     1     2    1.2789E+05 -3.7642E+04   1.6553E+05  0.000E+00  0.000E+00  0.000E+00  4.79661E+01  1.821E-01  2.000E+01  2.000E+04 -1.882E+00
   1   14    3     1     3    1.6553E+05 -3.3112E+04   1.9864E+05  0.000E+00  0.000E+00  0.000E+00  4.75141E+01  2.072E-01  2.000E+01  2.000E+04 -1.656E+00
   1   15    4     1     4    1.9864E+05 -3.2336E+04   2.3098E+05  0.000E+00  0.000E+00  0.000E+00  4.70584E+01  2.289E-01  2.000E+01  2.000E+04 -1.617E+00
   1   16    5     1     5    2.3098E+05 -3.3830E+04   2.6481E+05  0.000E+00  0.000E+00  0.000E+00  4.66017E+01  2.494E-01  2.000E+01  2.000E+04 -1.692E+00
   1   16    6     1     6    2.6481E+05 -2.9547E+04   2.9436E+05  0.000E+00  0.000E+00  0.000E+00  4.61431E+01  2.681E-01  2.000E+01  2.000E+04 -1.477E+00
   1   16    7     1     7    2.9436E+05 -2.9350E+04   3.2371E+05  0.000E+00  0.000E+00  0.000E+00  4.56824E+01  2.847E-01  2.000E+01  2.000E+04 -1.467E+00
   1   16    8     1     8    3.2371E+05 -2.9500E+04   3.5321E+05  0.000E+00  0.000E+00  0.000E+00  4.52211E+01  3.006E-01  2.000E+01  2.000E+04 -1.475E+00
   1   16    9     1     9    3.5321E+05 -2.9522E+04   3.8273E+05  0.000E+00  0.000E+00  0.000E+00  4.47593E+01  3.161E-01  2.000E+01  2.000E+04 -1.476E+00
   1   16   10     1    10    3.8273E+05 -2.9441E+04   4.1217E+05  0.000E+00  0.000E+00  0.000E+00  4.42970E+01  3.310E-01  2.000E+01  2.000E+04 -1.472E+00
   1   16   11     1    11    4.1217E+05 -2.9808E+04   4.4198E+05  0.000E+00  0.000E+00  0.000E+00  4.38343E+01  3.456E-01  2.000E+01  2.000E+04 -1.490E+00
   1   16   12     1    12    4.4198E+05 -3.4585E+04   4.7656E+05  0.000E+00  0.000E+00  0.000E+00  4.33724E+01  3.610E-01  2.000E+01  2.000E+04 -1.729E+00
   1   15   13     1    13    4.7656E+05 -3.2749E+04   5.0931E+05  0.000E+00  0.000E+00  0.000E+00  4.29108E+01  3.767E-01  2.000E+01  2.000E+04 -1.637E+00
   1   14   14     1    14    5.0931E+05 -3.2924E+04   5.4223E+05  0.000E+00  0.000E+00  0.000E+00  4.24484E+01  3.916E-01  2.000E+01  2.000E+04 -1.646E+00
   1   13   15     1    15    5.4223E+05 -3.5322E+04   5.7755E+05  0.000E+00  0.000E+00  0.000E+00  4.19862E+01  4.066E-01  2.000E+01  2.000E+04 -1.766E+00
   1   12   16     1    16    5.7755E+05 -4.2294E+04   6.1985E+05  0.000E+00  0.000E+00  0.000E+00  4.15256E+01  4.233E-01  2.000E+01  2.000E+04 -2.115E+00
   1   12   17     1    17    6.1985E+05 -3.2641E+04   6.5249E+05  0.000E+00  0.000E+00  0.000E+00  4.10640E+01  4.390E-01  2.000E+01  2.000E+04 -1.632E+00
   1   12   18     1    18    6.5249E+05 -3.1136E+04   6.8362E+05  0.000E+00  0.000E+00  0.000E+00  4.05998E+01  4.521E-01  2.000E+01  2.000E+04 -1.557E+00
   1   12   19     1    19    6.8362E+05 -3.5522E+04   7.1915E+05  0.000E+00  0.000E+00  0.000E+00  4.01359E+01  4.655E-01  2.000E+01  2.000E+04 -1.776E+00
   1   13   20     1    20    7.1915E+05 -2.5210E+04   7.4436E+05  0.000E+00  0.000E+00  0.000E+00  3.96706E+01  4.775E-01  2.000E+01  2.000E+04 -1.261E+00
   1   14   21     1    21    7.4436E+05 -1.8141E+04   7.6250E+05  0.000E+00  0.000E+00  0.000E+00  3.92018E+01  4.859E-01  2.000E+01  2.000E+04 -9.071E-01
   1   14   22     1    22    7.6250E+05 -1.4656E+03   7.6396E+05  0.000E+00  0.000E+00  0.000E+00  3.87283E+01  4.897E-01  2.000E+01  2.000E+04 -7.328E-02
   1    9   30     2     1    5.0000E+04 -2.6602E+04   7.6602E+04  0.000E+00  0.000E+00  0.000E+00  4.02585E+01  1.335E-01  2.000E+01  2.000E+04 -1.330E+00
   1    9   29     2     2    7.6602E+04 -2.9070E+04   1.0567E+05  0.000E+00  0.000E+00  0.000E+00  4.00411E+01  1.661E-01  2.000E+01  2.000E+04 -1.453E+00
   1    9   28     2     3    1.0567E+05 -3.3361E+04   1.3903E+05  0.000E+00  0.000E+00  0.000E+00  3.98232E+01  1.982E-01  2.000E+01  2.000E+04 -1.668E+00
   1    9   27     2     4    1.3903E+05 -4.7501E+04   1.8653E+05  0.000E+00  0.000E+00  0.000E+00  3.96103E+01  2.353E-01  2.000E+01  2.000E+04 -2.375E+00
   1   10   26     2     5    1.8653E+05 -3.3457E+04   2.1999E+05  0.000E+00  0.000E+00  0.000E+00  3.93938E+01  2.688E-01  2.000E+01  2.000E+04 -1.673E+00
   1   11   25     2     6    2.1999E+05 -2.5081E+04   2.4507E+05  0.000E+00  0.000E+00  0.000E+00  3.91664E+01  2.914E-01  2.000E+01  2.000E+04 -1.254E+00
   1   12   24     2     7    2.4507E+05 -1.8465E+04   2.6354E+05  0.000E+00  0.000E+00  0.000E+00  3.89325E+01  3.075E-01  2.000E+01  2.000E+04 -9.232E-01
   1   13   23     2     8    2.6354E+05 -1.3020E+04   2.7656E+05  0.000E+00  0.000E+00  0.000E+00  3.86937E+01  3.187E-01  2.000E+01  2.000E+04 -6.510E-01
   1   14   22     2     9    2.7656E+05 -7.0164E+03   2.8357E+05  0.000E+00  0.000E+00  0.000E+00  3.84508E+01  3.258E-01  2.000E+01  2.000E+04 -3.508E-01
   1   14   22     3     1    1.0475E+06 -1.5051E+04   1.0626E+06  0.000E+00  0.000E+00  0.000E+00  3.80490E+01  4.935E-01  2.000E+01  2.000E+04 -7.526E-01
   1   15   23     3     2    1.0626E+06 -2.2928E+04   1.0855E+06  0.000E+00  0.000E+00  0.000E+00  3.71655E+01  4.988E-01  2.000E+01  2.000E+04 -1.146E+00
   1   15   24     3     3    1.0855E+06 -1.9381E+04   1.1049E+06  0.000E+00  0.000E+00  0.000E+00  3.62824E+01  5.047E-01  2.000E+01  2.000E+04 -9.690E-01
   1   15   25     3     4    1.1049E+06 -1.9119E+04   1.1240E+06  0.000E+00  0.000E+00  0.000E+00  3.53989E+01  5.100E-01  2.000E+01  2.000E+04 -9.560E-01
   1   15   26     3     5    1.1240E+06 -2.1963E+04   1.1460E+06  0.000E+00  0.000E+00  0.000E+00  3.45156E+01  5.156E-01  2.000E+01  2.000E+04 -1.098E+00
   1   16   27     3     6    1.1460E+06 -2.9129E+04   1.1751E+06  0.000E+00  0.000E+00  0.000E+00  3.36336E+01  5.225E-01  2.000E+01  2.000E+04 -1.456E+00
   1   17   28     3     7    1.1751E+06 -3.6226E+04   1.2113E+06  0.000E+00  0.000E+00  0.000E+00  3.27535E+01  5.313E-01  2.000E+01  2.000E+04 -1.811E+00
   1   18   29     3     8    1.2113E+06 -4.7255E+04   1.2586E+06  0.000E+00  0.000E+00  0.000E+00  3.18757E+01  5.424E-01  2.000E+01  2.000E+04 -2.363E+00
   1   18   30     3     9    1.2586E+06 -4.3720E+04   1.3023E+06  0.000E+00  0.000E+00  0.000E+00  3.09987E+01  5.543E-01  2.000E+01  2.000E+04 -2.186E+00



1
  VOLUMETRIC BUDGET FOR ENTIRE MODEL AT END OF TIME STEP  1 IN STRESS PERIOD  12
  ------------------------------------------------------------------------------

     CUMULATIVE VOLUMES      L**3       RATES FOR THIS TIME STEP      L**3/T
     ------------------                 ------------------------

           IN:                                      IN:
           ---                                      ---
             STORAGE =    20850331.5632               STORAGE =         620.8824
       CONSTANT HEAD =  1258369240.4172         CONSTANT HEAD =     1155539.4058
            RECHARGE =    26413200.0000              RECHARGE =       27600.0000
      STREAM LEAKAGE =           0.0000        STREAM LEAKAGE =           0.0000
        MANAGED FLOW =           0.0000          MANAGED FLOW =           0.0000

            TOTAL IN =  1305632771.9804              TOTAL IN =     1183760.2882

          OUT:                                     OUT:
          ----                                     ----
             STORAGE =     1009696.1806               STORAGE =        1450.6570
       CONSTANT HEAD =           0.0000         CONSTANT HEAD =           0.0000
            RECHARGE =           0.0000              RECHARGE =           0.0000
      STREAM LEAKAGE =  1259488094.5141        STREAM LEAKAGE =     1152309.2590
        MANAGED FLOW =    45135000.0000          MANAGED FLOW =       30000.0000

           TOTAL OUT =  1305632790.6946             TOTAL OUT =     1183759.9160

            IN - OUT =         -18.7142              IN - OUT =           0.3722

 PERCENT DISCREPANCY =           0.00     PERCENT DISCREPANCY =           0.00






          TIME SUMMARY AT END OF TIME STEP   1 IN STRESS PERIOD   12
                    SECONDS     MINUTES      HOURS       DAYS        YEARS
                    -----------------------------------------------------------
   TIME STEP LENGTH 7.86240E+06 1.31040E+05  2184.0      91.000     0.24914    
 STRESS PERIOD TIME 7.86240E+06 1.31040E+05  2184.0      91.000     0.24914    
         TOTAL TIME 9.46080E+07 1.57680E+06  26280.      1095.0      2.9979    
1

 Run end date and time (yyyy/mm/dd hh:mm:ss): 2011/05/30 14:57:07
 Elapsed run time:  1.591 Seconds

