                                  MODFLOW-LGR      
      U.S. GEOLOGICAL SURVEY MODULAR FINITE-DIFFERENCE GROUNDWATER FLOW MODEL
                  VERSION GWM-2005 1.3 012611,FROM MF-LGR V1.2


     FINAL FLOW PROCESS SIMULATION FOR GWM                                                                                                                                                                   


 REWOUND ..\data\SUPPLY2\supply2.dis
 FILE TYPE:DIS   UNIT   11

 REWOUND ..\data\SUPPLY2\supply2.ba6
 FILE TYPE:BAS6   UNIT   12

 REWOUND ..\data\SUPPLY2\supply2.bc6
 FILE TYPE:BCF6   UNIT   13

 REWOUND ..\data\SUPPLY2\supply2.rch
 FILE TYPE:RCH   UNIT   15

 REWOUND ..\data\SUPPLY2\supply2.sfr
 FILE TYPE:SFR   UNIT   16

 REWOUND ..\data\SUPPLY2\supply2.oc
 FILE TYPE:OC   UNIT   17

 REWOUND ..\data\SUPPLY2\supply2.pcg
 FILE TYPE:PCG   UNIT   18

 REWOUND ..\data\SUPPLY2\supply2.gwm
 FILE TYPE:GWM   UNIT   19

 REWOUND ..\data\SUPPLY2\supply2.gwmwell
 FILE TYPE:DATA   UNIT   20

 REWOUND ..\data\SUPPLY2\supply2.sfrout
 FILE TYPE:DATA   UNIT   81

 BAS -- BASIC PACKAGE, VERSION 7, 5/2/2005 INPUT READ FROM UNIT   12

 DISCRETIZATION INPUT DATA READ FROM UNIT   11
    1 LAYERS        25 ROWS        30 COLUMNS
   12 STRESS PERIOD(S) IN SIMULATION
 MODEL TIME UNIT IS DAYS
 MODEL LENGTH UNIT IS UNDEFINED
  Confining bed flag for each layer:
   0

                     DELR =   200.000    

                     DELC =   200.000    

 TOP ELEVATION OF LAYER 1 =   100.000    

   MODEL LAYER BOTTOM EL. =   0.00000     FOR LAYER   1


 STRESS PERIOD     LENGTH       TIME STEPS     MULTIPLIER FOR DELT    SS FLAG
 ----------------------------------------------------------------------------
        1         92.00000          1                    1.500         TR
        2         91.00000          1                    1.500         TR
        3         91.00000          1                    1.500         TR
        4         91.00000          1                    1.500         TR
        5         92.00000          1                    1.500         TR
        6         91.00000          1                    1.500         TR
        7         91.00000          1                    1.500         TR
        8         91.00000          1                    1.500         TR
        9         92.00000          1                    1.500         TR
       10         91.00000          1                    1.500         TR
       11         91.00000          1                    1.500         TR
       12         91.00000          1                    1.500         TR

 TRANSIENT SIMULATION



 
 #MODOFC transient water supply sample problem                                   
 #                                                                               
 THE FREE FORMAT OPTION HAS BEEN SELECTED



                     BOUNDARY ARRAY FOR LAYER   1
 READING ON UNIT   12 WITH FORMAT: (20I4)              

 AQUIFER HEAD WILL BE SET TO  0.0000     AT ALL NO-FLOW NODES (IBOUND=0).



                       INITIAL HEAD FOR LAYER   1
 READING ON UNIT   12 WITH FORMAT: (10F13.0)           

 OUTPUT CONTROL IS SPECIFIED EVERY TIME STEP
 HEAD PRINT FORMAT CODE IS  19    DRAWDOWN PRINT FORMAT CODE IS   0
 HEADS WILL BE SAVED ON UNIT   10    DRAWDOWNS WILL BE SAVED ON UNIT   10

 BCF -- BLOCK-CENTERED FLOW PACKAGE, VERSION 7, 5/2/2005
         INPUT READ FROM UNIT 13
 TRANSIENT SIMULATION
 HEAD AT CELLS THAT CONVERT TO DRY=   0.0000    
 WETTING CAPABILITY IS NOT ACTIVE
      LAYER  LAYER-TYPE CODE     INTERBLOCK T
      --------------------------------------------
         1            0          0 -- HARMONIC    

 COLUMN TO ROW ANISOTROPY =   1.00000    

     PRIMARY STORAGE COEF =  5.000000E-02 FOR LAYER   1

     TRANSMIS. ALONG ROWS =   5000.00     FOR LAYER   1

 RCH -- RECHARGE PACKAGE, VERSION 7, 5/2/2005 INPUT READ FROM UNIT   15
 No named parameters
 OPTION 1 -- RECHARGE TO TOP LAYER


     0 Recharge parameters

 SFR7 -- STREAMFLOW ROUTING PACKAGE, VERSION 7.1.02, 06/29/2009
         INPUT READ FROM UNIT  16
 #SUPPLY2 Sample Problem, SFR file
 #March 2009


 NUMBER OF STREAM REACHES IS   40

 NUMBER OF STREAM SEGMENTS IS    3

 NUMBER OF STREAM PARAMETERS IS    0

 NUMBER OF STREAM SEGMENTS DEFINED USING PARAMETERS IS    0

 MAXIMUM ERROR FOR STREAM LEAKAGE RATES IS  1.00E-04

 CONSTANT FOR MANNINGS EQUATION IS  1.2839E+05



 STREAM OUTPUT WILL BE WRITTEN TO FILE ON UNIT  81


   STREAM NETWORK DESCRIPTION: 

   LAYER    ROW    COL   SEGMENT   REACH     LENGTH
                          NUMBER   NUMBER    IN CELL
   --------------------------------------------------
      1     13      1       1        1    2.0000E+02
      1     13      2       1        2    2.0000E+02
      1     14      3       1        3    2.0000E+02
      1     15      4       1        4    2.0000E+02
      1     16      5       1        5    2.0000E+02
      1     16      6       1        6    2.0000E+02
      1     16      7       1        7    2.0000E+02
      1     16      8       1        8    2.0000E+02
      1     16      9       1        9    2.0000E+02
      1     16     10       1       10    2.0000E+02
      1     16     11       1       11    2.0000E+02
      1     16     12       1       12    2.0000E+02
      1     15     13       1       13    2.0000E+02
      1     14     14       1       14    2.0000E+02
      1     13     15       1       15    2.0000E+02
      1     12     16       1       16    2.0000E+02
      1     12     17       1       17    2.0000E+02
      1     12     18       1       18    2.0000E+02
      1     12     19       1       19    2.0000E+02
      1     13     20       1       20    2.0000E+02
      1     14     21       1       21    2.0000E+02
      1     14     22       1       22    2.0000E+02
      1      9     30       2        1    2.0000E+02
      1      9     29       2        2    2.0000E+02
      1      9     28       2        3    2.0000E+02
      1      9     27       2        4    2.0000E+02
      1     10     26       2        5    2.0000E+02
      1     11     25       2        6    2.0000E+02
      1     12     24       2        7    2.0000E+02
      1     13     23       2        8    2.0000E+02
      1     14     22       2        9    2.0000E+02
      1     14     22       3        1    2.0000E+02
      1     15     23       3        2    2.0000E+02
      1     15     24       3        3    2.0000E+02
      1     15     25       3        4    2.0000E+02
      1     15     26       3        5    2.0000E+02
      1     16     27       3        6    2.0000E+02
      1     17     28       3        7    2.0000E+02
      1     18     29       3        8    2.0000E+02
      1     18     30       3        9    2.0000E+02



1
                            STRESS PERIOD NO.    1, LENGTH =   92.00000    
                            -----------------------------------------------

                              NUMBER OF TIME STEPS =     1

                               MULTIPLIER FOR DELT =     1.500

                            INITIAL TIME STEP SIZE =   92.00000    

                 RECHARGE =  5.000000E-04



 CLASSIFICATION & COUNT OF STREAM SEGMENTS BASED ON SOURCE OF INFLOW:

                HEADWATER     DIVERSION     RECEIVES TRIBUTARY FLOW
                ---------     ---------     -----------------------
                     2              0               1



                    INPUT DATA FOR EACH STREAM SEGMENT
 ---------------------------------------------------------------------------------------------

 SEGMENT    SEG.     INFLOW   OVERLAND   STREAM    STREAM   ICALC  OUTFLOW  DIVERSION PRIORITY
    NO.    LENGTH     RATE     RUNOFF      ET       PPT.    METH.  TO SEG.  FROM SEG.    NO.

      1  4.400E+03 1.000E+05 0.000E+00 0.000E+00 0.000E+00    1        3        0        0
      2  1.800E+03 5.000E+04 0.000E+00 0.000E+00 0.000E+00    1        3        0        0
      3  1.800E+03 0.000E+00 0.000E+00 0.000E+00 0.000E+00    1        0        0        0


         STREAMBED PROPERTIES AND STREAM DIMENSIONS

 SEGMENT     BED HYD. COND.      BED THICKNESS     ELEV.-TOP OF BED     WIDTH OF STREAM     DEPTH OF STREAM    STREAM ROUGHNESS
    No.     UPPER     LOWER     UPPER     LOWER     UPPER     LOWER     UPPER     LOWER     UPPER     LOWER   CHANNEL      BANK

     1  5.000E+00 5.000E+00 1.000E+00 1.000E+00 4.850E+01 3.800E+01 2.000E+01 2.000E+01                     5.000E-02
     2  5.000E+00 5.000E+00 1.000E+00 1.000E+00 4.025E+01 3.800E+01 2.000E+01 2.000E+01                     5.000E-02
     3  5.000E+00 5.000E+00 1.000E+00 1.000E+00 3.800E+01 3.000E+01 2.000E+01 2.000E+01                     5.000E-02



 
 SOLVING FOR HEAD 


     7 CALLS TO PCG ROUTINE FOR TIME STEP   1 IN STRESS PERIOD    1
    28 TOTAL ITERATIONS

 HEAD/DRAWDOWN PRINTOUT FLAG = 1     TOTAL BUDGET PRINTOUT FLAG = 1
 CELL-BY-CELL FLOW TERM FLAG = 1

 OUTPUT FLAGS FOR ALL LAYERS ARE THE SAME:
   HEAD    DRAWDOWN  HEAD  DRAWDOWN
 PRINTOUT  PRINTOUT  SAVE    SAVE
 ----------------------------------
     0         0       0       0



 STREAM LISTING     PERIOD      1   STEP        1

 LAYER ROW COL. STREAM  RCH.  FLOW INTO     FLOW TO   FLOW OUT OF   OVRLND.     DIRECT     STREAM       STREAM     STREAM     STREAM   STREAMBED  STREAMBED
                SEG.NO.  NO.  STRM. RCH.    AQUIFER    STRM. RCH.    RUNOFF     PRECIP       ET          HEAD       DEPTH      WIDTH   CONDCTNC.   GRADIENT

   1   13    1     1     1    1.0000E+05 -3.1612E+04   1.3161E+05  0.000E+00  0.000E+00  0.000E+00  4.84193E+01  1.580E-01  2.000E+01  2.000E+04 -1.581E+00
   1   13    2     1     2    1.3161E+05 -4.2045E+04   1.7366E+05  0.000E+00  0.000E+00  0.000E+00  4.79705E+01  1.864E-01  2.000E+01  2.000E+04 -2.102E+00
   1   14    3     1     3    1.7366E+05 -3.7571E+04   2.1123E+05  0.000E+00  0.000E+00  0.000E+00  4.75211E+01  2.142E-01  2.000E+01  2.000E+04 -1.879E+00
   1   15    4     1     4    2.1123E+05 -3.6610E+04   2.4784E+05  0.000E+00  0.000E+00  0.000E+00  4.70677E+01  2.381E-01  2.000E+01  2.000E+04 -1.830E+00
   1   16    5     1     5    2.4784E+05 -3.7537E+04   2.8538E+05  0.000E+00  0.000E+00  0.000E+00  4.66128E+01  2.605E-01  2.000E+01  2.000E+04 -1.877E+00
   1   16    6     1     6    2.8538E+05 -3.2774E+04   3.1815E+05  0.000E+00  0.000E+00  0.000E+00  4.61556E+01  2.806E-01  2.000E+01  2.000E+04 -1.639E+00
   1   16    7     1     7    3.1815E+05 -3.2521E+04   3.5067E+05  0.000E+00  0.000E+00  0.000E+00  4.56962E+01  2.985E-01  2.000E+01  2.000E+04 -1.626E+00
   1   16    8     1     8    3.5067E+05 -3.2635E+04   3.8331E+05  0.000E+00  0.000E+00  0.000E+00  4.52360E+01  3.156E-01  2.000E+01  2.000E+04 -1.632E+00
   1   16    9     1     9    3.8331E+05 -3.2586E+04   4.1589E+05  0.000E+00  0.000E+00  0.000E+00  4.47753E+01  3.321E-01  2.000E+01  2.000E+04 -1.629E+00
   1   16   10     1    10    4.1589E+05 -3.2395E+04   4.4829E+05  0.000E+00  0.000E+00  0.000E+00  4.43140E+01  3.481E-01  2.000E+01  2.000E+04 -1.620E+00
   1   16   11     1    11    4.4829E+05 -3.2628E+04   4.8091E+05  0.000E+00  0.000E+00  0.000E+00  4.38522E+01  3.636E-01  2.000E+01  2.000E+04 -1.631E+00
   1   16   12     1    12    4.8091E+05 -3.7442E+04   5.1836E+05  0.000E+00  0.000E+00  0.000E+00  4.33911E+01  3.798E-01  2.000E+01  2.000E+04 -1.872E+00
   1   15   13     1    13    5.1836E+05 -3.5728E+04   5.5408E+05  0.000E+00  0.000E+00  0.000E+00  4.29303E+01  3.962E-01  2.000E+01  2.000E+04 -1.786E+00
   1   14   14     1    14    5.5408E+05 -3.5833E+04   5.8992E+05  0.000E+00  0.000E+00  0.000E+00  4.24687E+01  4.119E-01  2.000E+01  2.000E+04 -1.792E+00
   1   13   15     1    15    5.8992E+05 -3.8356E+04   6.2827E+05  0.000E+00  0.000E+00  0.000E+00  4.20072E+01  4.277E-01  2.000E+01  2.000E+04 -1.918E+00
   1   12   16     1    16    6.2827E+05 -4.5705E+04   6.7398E+05  0.000E+00  0.000E+00  0.000E+00  4.15474E+01  4.452E-01  2.000E+01  2.000E+04 -2.285E+00
   1   12   17     1    17    6.7398E+05 -3.5257E+04   7.0924E+05  0.000E+00  0.000E+00  0.000E+00  4.10866E+01  4.616E-01  2.000E+01  2.000E+04 -1.763E+00
   1   12   18     1    18    7.0924E+05 -3.3735E+04   7.4297E+05  0.000E+00  0.000E+00  0.000E+00  4.06230E+01  4.753E-01  2.000E+01  2.000E+04 -1.687E+00
   1   12   19     1    19    7.4297E+05 -3.8678E+04   7.8165E+05  0.000E+00  0.000E+00  0.000E+00  4.01598E+01  4.893E-01  2.000E+01  2.000E+04 -1.934E+00
   1   13   20     1    20    7.8165E+05 -2.7876E+04   8.0952E+05  0.000E+00  0.000E+00  0.000E+00  3.96952E+01  5.020E-01  2.000E+01  2.000E+04 -1.394E+00
   1   14   21     1    21    8.0952E+05 -2.0260E+04   8.2978E+05  0.000E+00  0.000E+00  0.000E+00  3.92270E+01  5.111E-01  2.000E+01  2.000E+04 -1.013E+00
   1   14   22     1    22    8.2978E+05 -2.4770E+03   8.3226E+05  0.000E+00  0.000E+00  0.000E+00  3.87540E+01  5.153E-01  2.000E+01  2.000E+04 -1.239E-01
   1    9   30     2     1    5.0000E+04 -2.9656E+04   7.9656E+04  0.000E+00  0.000E+00  0.000E+00  4.02604E+01  1.354E-01  2.000E+01  2.000E+04 -1.483E+00
   1    9   29     2     2    7.9656E+04 -3.2095E+04   1.1175E+05  0.000E+00  0.000E+00  0.000E+00  4.00461E+01  1.711E-01  2.000E+01  2.000E+04 -1.605E+00
   1    9   28     2     3    1.1175E+05 -3.6415E+04   1.4817E+05  0.000E+00  0.000E+00  0.000E+00  3.98305E+01  2.055E-01  2.000E+01  2.000E+04 -1.821E+00
   1    9   27     2     4    1.4817E+05 -5.1039E+04   1.9921E+05  0.000E+00  0.000E+00  0.000E+00  3.96196E+01  2.446E-01  2.000E+01  2.000E+04 -2.552E+00
   1   10   26     2     5    1.9921E+05 -3.7430E+04   2.3664E+05  0.000E+00  0.000E+00  0.000E+00  3.94053E+01  2.803E-01  2.000E+01  2.000E+04 -1.872E+00
   1   11   25     2     6    2.3664E+05 -2.9008E+04   2.6564E+05  0.000E+00  0.000E+00  0.000E+00  3.91802E+01  3.052E-01  2.000E+01  2.000E+04 -1.450E+00
   1   12   24     2     7    2.6564E+05 -2.1986E+04   2.8763E+05  0.000E+00  0.000E+00  0.000E+00  3.89484E+01  3.234E-01  2.000E+01  2.000E+04 -1.099E+00
   1   13   23     2     8    2.8763E+05 -1.5789E+04   3.0342E+05  0.000E+00  0.000E+00  0.000E+00  3.87115E+01  3.365E-01  2.000E+01  2.000E+04 -7.895E-01
   1   14   22     2     9    3.0342E+05 -8.1651E+03   3.1158E+05  0.000E+00  0.000E+00  0.000E+00  3.84696E+01  3.446E-01  2.000E+01  2.000E+04 -4.083E-01
   1   14   22     3     1    1.1438E+06 -1.6042E+04   1.1599E+06  0.000E+00  0.000E+00  0.000E+00  3.80757E+01  5.202E-01  2.000E+01  2.000E+04 -8.021E-01
   1   15   23     3     2    1.1599E+06 -2.5350E+04   1.1852E+06  0.000E+00  0.000E+00  0.000E+00  3.71924E+01  5.258E-01  2.000E+01  2.000E+04 -1.268E+00
   1   15   24     3     3    1.1852E+06 -2.1746E+04   1.2070E+06  0.000E+00  0.000E+00  0.000E+00  3.63098E+01  5.321E-01  2.000E+01  2.000E+04 -1.087E+00
   1   15   25     3     4    1.2070E+06 -2.1742E+04   1.2287E+06  0.000E+00  0.000E+00  0.000E+00  3.54267E+01  5.378E-01  2.000E+01  2.000E+04 -1.087E+00
   1   15   26     3     5    1.2287E+06 -2.5311E+04   1.2540E+06  0.000E+00  0.000E+00  0.000E+00  3.45441E+01  5.441E-01  2.000E+01  2.000E+04 -1.266E+00
   1   16   27     3     6    1.2540E+06 -3.2957E+04   1.2870E+06  0.000E+00  0.000E+00  0.000E+00  3.36628E+01  5.517E-01  2.000E+01  2.000E+04 -1.648E+00
   1   17   28     3     7    1.2870E+06 -4.0000E+04   1.3270E+06  0.000E+00  0.000E+00  0.000E+00  3.27834E+01  5.611E-01  2.000E+01  2.000E+04 -2.000E+00
   1   18   29     3     8    1.3270E+06 -5.0498E+04   1.3775E+06  0.000E+00  0.000E+00  0.000E+00  3.19060E+01  5.727E-01  2.000E+01  2.000E+04 -2.525E+00
   1   18   30     3     9    1.3775E+06 -4.6588E+04   1.4241E+06  0.000E+00  0.000E+00  0.000E+00  3.10294E+01  5.850E-01  2.000E+01  2.000E+04 -2.329E+00



1
  VOLUMETRIC BUDGET FOR ENTIRE MODEL AT END OF TIME STEP  1 IN STRESS PERIOD   1
  ------------------------------------------------------------------------------

     CUMULATIVE VOLUMES      L**3       RATES FOR THIS TIME STEP      L**3/T
     ------------------                 ------------------------

           IN:                                      IN:
           ---                                      ---
             STORAGE =    19119485.5691               STORAGE =      207820.4953
       CONSTANT HEAD =   101746988.5824         CONSTANT HEAD =     1105945.5281
            RECHARGE =     1269600.0000              RECHARGE =       13800.0000
      STREAM LEAKAGE =           0.0000        STREAM LEAKAGE =           0.0000
        MANAGED FLOW =           0.0000          MANAGED FLOW =           0.0000

            TOTAL IN =   122136074.1514              TOTAL IN =     1327566.0234

          OUT:                                     OUT:
          ----                                     ----
             STORAGE =           0.0000               STORAGE =           0.0000
       CONSTANT HEAD =           0.0000         CONSTANT HEAD =           0.0000
            RECHARGE =           0.0000              RECHARGE =           0.0000
      STREAM LEAKAGE =   117215524.8911        STREAM LEAKAGE =     1274081.7923
        MANAGED FLOW =     4920565.3301          MANAGED FLOW =       53484.4058

           TOTAL OUT =   122136090.2211             TOTAL OUT =     1327566.1981

            IN - OUT =         -16.0697              IN - OUT =          -0.1747

 PERCENT DISCREPANCY =           0.00     PERCENT DISCREPANCY =           0.00






          TIME SUMMARY AT END OF TIME STEP   1 IN STRESS PERIOD    1
                    SECONDS     MINUTES      HOURS       DAYS        YEARS
                    -----------------------------------------------------------
   TIME STEP LENGTH 7.94880E+06 1.32480E+05  2208.0      92.000     0.25188    
 STRESS PERIOD TIME 7.94880E+06 1.32480E+05  2208.0      92.000     0.25188    
         TOTAL TIME 7.94880E+06 1.32480E+05  2208.0      92.000     0.25188    
1
1
                            STRESS PERIOD NO.    2, LENGTH =   91.00000    
                            -----------------------------------------------

                              NUMBER OF TIME STEPS =     1

                               MULTIPLIER FOR DELT =     1.500

                            INITIAL TIME STEP SIZE =   91.00000    

                 RECHARGE =  2.000000E-03

 REUSING STREAM SEGMENT DATA FROM LAST STRESS PERIOD
 
 SOLVING FOR HEAD 


     6 CALLS TO PCG ROUTINE FOR TIME STEP   1 IN STRESS PERIOD    2
    22 TOTAL ITERATIONS

 HEAD/DRAWDOWN PRINTOUT FLAG = 1     TOTAL BUDGET PRINTOUT FLAG = 1
 CELL-BY-CELL FLOW TERM FLAG = 1

 OUTPUT FLAGS FOR ALL LAYERS ARE THE SAME:
   HEAD    DRAWDOWN  HEAD  DRAWDOWN
 PRINTOUT  PRINTOUT  SAVE    SAVE
 ----------------------------------
     0         0       0       0



 STREAM LISTING     PERIOD      2   STEP        1

 LAYER ROW COL. STREAM  RCH.  FLOW INTO     FLOW TO   FLOW OUT OF   OVRLND.     DIRECT     STREAM       STREAM     STREAM     STREAM   STREAMBED  STREAMBED
                SEG.NO.  NO.  STRM. RCH.    AQUIFER    STRM. RCH.    RUNOFF     PRECIP       ET          HEAD       DEPTH      WIDTH   CONDCTNC.   GRADIENT

   1   13    1     1     1    1.0000E+05 -2.8479E+04   1.2848E+05  0.000E+00  0.000E+00  0.000E+00  4.84180E+01  1.567E-01  2.000E+01  2.000E+04 -1.424E+00
   1   13    2     1     2    1.2848E+05 -3.8341E+04   1.6682E+05  0.000E+00  0.000E+00  0.000E+00  4.79668E+01  1.828E-01  2.000E+01  2.000E+04 -1.917E+00
   1   14    3     1     3    1.6682E+05 -3.3773E+04   2.0059E+05  0.000E+00  0.000E+00  0.000E+00  4.75152E+01  2.084E-01  2.000E+01  2.000E+04 -1.689E+00
   1   15    4     1     4    2.0059E+05 -3.2957E+04   2.3355E+05  0.000E+00  0.000E+00  0.000E+00  4.70598E+01  2.303E-01  2.000E+01  2.000E+04 -1.648E+00
   1   16    5     1     5    2.3355E+05 -3.4389E+04   2.6794E+05  0.000E+00  0.000E+00  0.000E+00  4.66034E+01  2.511E-01  2.000E+01  2.000E+04 -1.719E+00
   1   16    6     1     6    2.6794E+05 -3.0010E+04   2.9795E+05  0.000E+00  0.000E+00  0.000E+00  4.61450E+01  2.700E-01  2.000E+01  2.000E+04 -1.500E+00
   1   16    7     1     7    2.9795E+05 -2.9783E+04   3.2773E+05  0.000E+00  0.000E+00  0.000E+00  4.56845E+01  2.868E-01  2.000E+01  2.000E+04 -1.489E+00
   1   16    8     1     8    3.2773E+05 -2.9904E+04   3.5764E+05  0.000E+00  0.000E+00  0.000E+00  4.52233E+01  3.029E-01  2.000E+01  2.000E+04 -1.495E+00
   1   16    9     1     9    3.5764E+05 -2.9893E+04   3.8753E+05  0.000E+00  0.000E+00  0.000E+00  4.47616E+01  3.185E-01  2.000E+01  2.000E+04 -1.495E+00
   1   16   10     1    10    3.8753E+05 -2.9784E+04   4.1731E+05  0.000E+00  0.000E+00  0.000E+00  4.42994E+01  3.335E-01  2.000E+01  2.000E+04 -1.489E+00
   1   16   11     1    11    4.1731E+05 -3.0155E+04   4.4747E+05  0.000E+00  0.000E+00  0.000E+00  4.38369E+01  3.482E-01  2.000E+01  2.000E+04 -1.508E+00
   1   16   12     1    12    4.4747E+05 -3.5063E+04   4.8253E+05  0.000E+00  0.000E+00  0.000E+00  4.33751E+01  3.637E-01  2.000E+01  2.000E+04 -1.753E+00
   1   15   13     1    13    4.8253E+05 -3.3225E+04   5.1576E+05  0.000E+00  0.000E+00  0.000E+00  4.29136E+01  3.795E-01  2.000E+01  2.000E+04 -1.661E+00
   1   14   14     1    14    5.1576E+05 -3.3436E+04   5.4919E+05  0.000E+00  0.000E+00  0.000E+00  4.24514E+01  3.946E-01  2.000E+01  2.000E+04 -1.672E+00
   1   13   15     1    15    5.4919E+05 -3.5875E+04   5.8507E+05  0.000E+00  0.000E+00  0.000E+00  4.19893E+01  4.098E-01  2.000E+01  2.000E+04 -1.794E+00
   1   12   16     1    16    5.8507E+05 -4.2850E+04   6.2792E+05  0.000E+00  0.000E+00  0.000E+00  4.15289E+01  4.266E-01  2.000E+01  2.000E+04 -2.143E+00
   1   12   17     1    17    6.2792E+05 -3.3142E+04   6.6106E+05  0.000E+00  0.000E+00  0.000E+00  4.10674E+01  4.424E-01  2.000E+01  2.000E+04 -1.657E+00
   1   12   18     1    18    6.6106E+05 -3.1601E+04   6.9266E+05  0.000E+00  0.000E+00  0.000E+00  4.06034E+01  4.556E-01  2.000E+01  2.000E+04 -1.580E+00
   1   12   19     1    19    6.9266E+05 -3.5948E+04   7.2861E+05  0.000E+00  0.000E+00  0.000E+00  4.01396E+01  4.692E-01  2.000E+01  2.000E+04 -1.797E+00
   1   13   20     1    20    7.2861E+05 -2.5520E+04   7.5413E+05  0.000E+00  0.000E+00  0.000E+00  3.96744E+01  4.812E-01  2.000E+01  2.000E+04 -1.276E+00
   1   14   21     1    21    7.5413E+05 -1.8263E+04   7.7239E+05  0.000E+00  0.000E+00  0.000E+00  3.92056E+01  4.897E-01  2.000E+01  2.000E+04 -9.131E-01
   1   14   22     1    22    7.7239E+05 -8.2947E+02   7.7322E+05  0.000E+00  0.000E+00  0.000E+00  3.87320E+01  4.934E-01  2.000E+01  2.000E+04 -4.147E-02
   1    9   30     2     1    5.0000E+04 -2.6509E+04   7.6509E+04  0.000E+00  0.000E+00  0.000E+00  4.02584E+01  1.334E-01  2.000E+01  2.000E+04 -1.325E+00
   1    9   29     2     2    7.6509E+04 -2.8953E+04   1.0546E+05  0.000E+00  0.000E+00  0.000E+00  4.00409E+01  1.659E-01  2.000E+01  2.000E+04 -1.448E+00
   1    9   28     2     3    1.0546E+05 -3.3219E+04   1.3868E+05  0.000E+00  0.000E+00  0.000E+00  3.98229E+01  1.979E-01  2.000E+01  2.000E+04 -1.661E+00
   1    9   27     2     4    1.3868E+05 -4.7396E+04   1.8608E+05  0.000E+00  0.000E+00  0.000E+00  3.96099E+01  2.349E-01  2.000E+01  2.000E+04 -2.370E+00
   1   10   26     2     5    1.8608E+05 -3.2589E+04   2.1867E+05  0.000E+00  0.000E+00  0.000E+00  3.93931E+01  2.681E-01  2.000E+01  2.000E+04 -1.629E+00
   1   11   25     2     6    2.1867E+05 -2.2738E+04   2.4140E+05  0.000E+00  0.000E+00  0.000E+00  3.91645E+01  2.895E-01  2.000E+01  2.000E+04 -1.137E+00
   1   12   24     2     7    2.4140E+05 -1.4639E+04   2.5604E+05  0.000E+00  0.000E+00  0.000E+00  3.89284E+01  3.034E-01  2.000E+01  2.000E+04 -7.319E-01
   1   13   23     2     8    2.5604E+05 -9.8288E+03   2.6587E+05  0.000E+00  0.000E+00  0.000E+00  3.86873E+01  3.123E-01  2.000E+01  2.000E+04 -4.914E-01
   1   14   22     2     9    2.6587E+05 -6.6070E+03   2.7248E+05  0.000E+00  0.000E+00  0.000E+00  3.84431E+01  3.181E-01  2.000E+01  2.000E+04 -3.304E-01
   1   14   22     3     1    1.0457E+06 -1.4501E+04   1.0602E+06  0.000E+00  0.000E+00  0.000E+00  3.80484E+01  4.929E-01  2.000E+01  2.000E+04 -7.250E-01
   1   15   23     3     2    1.0602E+06 -2.1191E+04   1.0814E+06  0.000E+00  0.000E+00  0.000E+00  3.71645E+01  4.979E-01  2.000E+01  2.000E+04 -1.060E+00
   1   15   24     3     3    1.0814E+06 -1.4321E+04   1.0957E+06  0.000E+00  0.000E+00  0.000E+00  3.62806E+01  5.028E-01  2.000E+01  2.000E+04 -7.161E-01
   1   15   25     3     4    1.0957E+06 -8.1383E+03   1.1039E+06  0.000E+00  0.000E+00  0.000E+00  3.53948E+01  5.059E-01  2.000E+01  2.000E+04 -4.069E-01
   1   15   26     3     5    1.1039E+06 -1.5889E+04   1.1197E+06  0.000E+00  0.000E+00  0.000E+00  3.45092E+01  5.092E-01  2.000E+01  2.000E+04 -7.944E-01
   1   16   27     3     6    1.1197E+06 -2.7517E+04   1.1473E+06  0.000E+00  0.000E+00  0.000E+00  3.36263E+01  5.152E-01  2.000E+01  2.000E+04 -1.376E+00
   1   17   28     3     7    1.1473E+06 -3.5765E+04   1.1830E+06  0.000E+00  0.000E+00  0.000E+00  3.27460E+01  5.238E-01  2.000E+01  2.000E+04 -1.788E+00
   1   18   29     3     8    1.1830E+06 -4.7266E+04   1.2303E+06  0.000E+00  0.000E+00  0.000E+00  3.18682E+01  5.349E-01  2.000E+01  2.000E+04 -2.363E+00
   1   18   30     3     9    1.2303E+06 -4.3709E+04   1.2740E+06  0.000E+00  0.000E+00  0.000E+00  3.09913E+01  5.469E-01  2.000E+01  2.000E+04 -2.185E+00



1
  VOLUMETRIC BUDGET FOR ENTIRE MODEL AT END OF TIME STEP  1 IN STRESS PERIOD   2
  ------------------------------------------------------------------------------

     CUMULATIVE VOLUMES      L**3       RATES FOR THIS TIME STEP      L**3/T
     ------------------                 ------------------------

           IN:                                      IN:
           ---                                      ---
             STORAGE =    19763766.0152               STORAGE =        7080.0049
       CONSTANT HEAD =   205652410.9363         CONSTANT HEAD =     1141817.8281
            RECHARGE =     6292800.0000              RECHARGE =       55200.0000
      STREAM LEAKAGE =           0.0000        STREAM LEAKAGE =           0.0000
        MANAGED FLOW =           0.0000          MANAGED FLOW =           0.0000

            TOTAL IN =   231708976.9515              TOTAL IN =     1204097.8330

          OUT:                                     OUT:
          ----                                     ----
             STORAGE =        9095.9211               STORAGE =          99.9552
       CONSTANT HEAD =           0.0000         CONSTANT HEAD =           0.0000
            RECHARGE =           0.0000              RECHARGE =           0.0000
      STREAM LEAKAGE =   219499347.0547        STREAM LEAKAGE =     1123998.0458
        MANAGED FLOW =    12200565.1079          MANAGED FLOW =       79999.9976

           TOTAL OUT =   231709008.0837             TOTAL OUT =     1204097.9985

            IN - OUT =         -31.1322              IN - OUT =          -0.1655

 PERCENT DISCREPANCY =           0.00     PERCENT DISCREPANCY =           0.00






          TIME SUMMARY AT END OF TIME STEP   1 IN STRESS PERIOD    2
                    SECONDS     MINUTES      HOURS       DAYS        YEARS
                    -----------------------------------------------------------
   TIME STEP LENGTH 7.86240E+06 1.31040E+05  2184.0      91.000     0.24914    
 STRESS PERIOD TIME 7.86240E+06 1.31040E+05  2184.0      91.000     0.24914    
         TOTAL TIME 1.58112E+07 2.63520E+05  4392.0      183.00     0.50103    
1
1
                            STRESS PERIOD NO.    3, LENGTH =   91.00000    
                            -----------------------------------------------

                              NUMBER OF TIME STEPS =     1

                               MULTIPLIER FOR DELT =     1.500

                            INITIAL TIME STEP SIZE =   91.00000    

                 RECHARGE =   0.00000    

 REUSING STREAM SEGMENT DATA FROM LAST STRESS PERIOD
 
 SOLVING FOR HEAD 


     5 CALLS TO PCG ROUTINE FOR TIME STEP   1 IN STRESS PERIOD    3
    18 TOTAL ITERATIONS

 HEAD/DRAWDOWN PRINTOUT FLAG = 1     TOTAL BUDGET PRINTOUT FLAG = 1
 CELL-BY-CELL FLOW TERM FLAG = 1

 OUTPUT FLAGS FOR ALL LAYERS ARE THE SAME:
   HEAD    DRAWDOWN  HEAD  DRAWDOWN
 PRINTOUT  PRINTOUT  SAVE    SAVE
 ----------------------------------
     0         0       0       0



 STREAM LISTING     PERIOD      3   STEP        1

 LAYER ROW COL. STREAM  RCH.  FLOW INTO     FLOW TO   FLOW OUT OF   OVRLND.     DIRECT     STREAM       STREAM     STREAM     STREAM   STREAMBED  STREAMBED
                SEG.NO.  NO.  STRM. RCH.    AQUIFER    STRM. RCH.    RUNOFF     PRECIP       ET          HEAD       DEPTH      WIDTH   CONDCTNC.   GRADIENT

   1   13    1     1     1    1.0000E+05 -2.7451E+04   1.2745E+05  0.000E+00  0.000E+00  0.000E+00  4.84176E+01  1.563E-01  2.000E+01  2.000E+04 -1.373E+00
   1   13    2     1     2    1.2745E+05 -3.7104E+04   1.6455E+05  0.000E+00  0.000E+00  0.000E+00  4.79656E+01  1.815E-01  2.000E+01  2.000E+04 -1.855E+00
   1   14    3     1     3    1.6455E+05 -3.2579E+04   1.9713E+05  0.000E+00  0.000E+00  0.000E+00  4.75132E+01  2.064E-01  2.000E+01  2.000E+04 -1.629E+00
   1   15    4     1     4    1.9713E+05 -3.1820E+04   2.2895E+05  0.000E+00  0.000E+00  0.000E+00  4.70573E+01  2.277E-01  2.000E+01  2.000E+04 -1.591E+00
   1   16    5     1     5    2.2895E+05 -3.3378E+04   2.6233E+05  0.000E+00  0.000E+00  0.000E+00  4.66003E+01  2.480E-01  2.000E+01  2.000E+04 -1.669E+00
   1   16    6     1     6    2.6233E+05 -2.9129E+04   2.9146E+05  0.000E+00  0.000E+00  0.000E+00  4.61415E+01  2.665E-01  2.000E+01  2.000E+04 -1.456E+00
   1   16    7     1     7    2.9146E+05 -2.8911E+04   3.2037E+05  0.000E+00  0.000E+00  0.000E+00  4.56807E+01  2.829E-01  2.000E+01  2.000E+04 -1.446E+00
   1   16    8     1     8    3.2037E+05 -2.9032E+04   3.4940E+05  0.000E+00  0.000E+00  0.000E+00  4.52192E+01  2.987E-01  2.000E+01  2.000E+04 -1.452E+00
   1   16    9     1     9    3.4940E+05 -2.9027E+04   3.7843E+05  0.000E+00  0.000E+00  0.000E+00  4.47572E+01  3.140E-01  2.000E+01  2.000E+04 -1.451E+00
   1   16   10     1    10    3.7843E+05 -2.8930E+04   4.0736E+05  0.000E+00  0.000E+00  0.000E+00  4.42947E+01  3.288E-01  2.000E+01  2.000E+04 -1.446E+00
   1   16   11     1    11    4.0736E+05 -2.9307E+04   4.3667E+05  0.000E+00  0.000E+00  0.000E+00  4.38318E+01  3.432E-01  2.000E+01  2.000E+04 -1.465E+00
   1   16   12     1    12    4.3667E+05 -3.4114E+04   4.7078E+05  0.000E+00  0.000E+00  0.000E+00  4.33698E+01  3.584E-01  2.000E+01  2.000E+04 -1.706E+00
   1   15   13     1    13    4.7078E+05 -3.2178E+04   5.0296E+05  0.000E+00  0.000E+00  0.000E+00  4.29080E+01  3.739E-01  2.000E+01  2.000E+04 -1.609E+00
   1   14   14     1    14    5.0296E+05 -3.2361E+04   5.3532E+05  0.000E+00  0.000E+00  0.000E+00  4.24454E+01  3.886E-01  2.000E+01  2.000E+04 -1.618E+00
   1   13   15     1    15    5.3532E+05 -3.4802E+04   5.7012E+05  0.000E+00  0.000E+00  0.000E+00  4.19830E+01  4.035E-01  2.000E+01  2.000E+04 -1.740E+00
   1   12   16     1    16    5.7012E+05 -4.1783E+04   6.1190E+05  0.000E+00  0.000E+00  0.000E+00  4.15223E+01  4.200E-01  2.000E+01  2.000E+04 -2.089E+00
   1   12   17     1    17    6.1190E+05 -3.2328E+04   6.4423E+05  0.000E+00  0.000E+00  0.000E+00  4.10606E+01  4.356E-01  2.000E+01  2.000E+04 -1.616E+00
   1   12   18     1    18    6.4423E+05 -3.0860E+04   6.7509E+05  0.000E+00  0.000E+00  0.000E+00  4.05964E+01  4.487E-01  2.000E+01  2.000E+04 -1.543E+00
   1   12   19     1    19    6.7509E+05 -3.5200E+04   7.1029E+05  0.000E+00  0.000E+00  0.000E+00  4.01325E+01  4.620E-01  2.000E+01  2.000E+04 -1.760E+00
   1   13   20     1    20    7.1029E+05 -2.4976E+04   7.3527E+05  0.000E+00  0.000E+00  0.000E+00  3.96671E+01  4.739E-01  2.000E+01  2.000E+04 -1.249E+00
   1   14   21     1    21    7.3527E+05 -1.7960E+04   7.5323E+05  0.000E+00  0.000E+00  0.000E+00  3.91983E+01  4.823E-01  2.000E+01  2.000E+04 -8.980E-01
   1   14   22     1    22    7.5323E+05 -1.3844E+03   7.5461E+05  0.000E+00  0.000E+00  0.000E+00  3.87247E+01  4.861E-01  2.000E+01  2.000E+04 -6.922E-02
   1    9   30     2     1    5.0000E+04 -2.6323E+04   7.6323E+04  0.000E+00  0.000E+00  0.000E+00  4.02583E+01  1.333E-01  2.000E+01  2.000E+04 -1.316E+00
   1    9   29     2     2    7.6323E+04 -2.8791E+04   1.0511E+05  0.000E+00  0.000E+00  0.000E+00  4.00406E+01  1.656E-01  2.000E+01  2.000E+04 -1.440E+00
   1    9   28     2     3    1.0511E+05 -3.3072E+04   1.3819E+05  0.000E+00  0.000E+00  0.000E+00  3.98225E+01  1.975E-01  2.000E+01  2.000E+04 -1.654E+00
   1    9   27     2     4    1.3819E+05 -4.7148E+04   1.8533E+05  0.000E+00  0.000E+00  0.000E+00  3.96094E+01  2.344E-01  2.000E+01  2.000E+04 -2.357E+00
   1   10   26     2     5    1.8533E+05 -3.3091E+04   2.1843E+05  0.000E+00  0.000E+00  0.000E+00  3.93927E+01  2.677E-01  2.000E+01  2.000E+04 -1.655E+00
   1   11   25     2     6    2.1843E+05 -2.4728E+04   2.4315E+05  0.000E+00  0.000E+00  0.000E+00  3.91651E+01  2.901E-01  2.000E+01  2.000E+04 -1.236E+00
   1   12   24     2     7    2.4315E+05 -1.8150E+04   2.6130E+05  0.000E+00  0.000E+00  0.000E+00  3.89309E+01  3.059E-01  2.000E+01  2.000E+04 -9.075E-01
   1   13   23     2     8    2.6130E+05 -1.2770E+04   2.7407E+05  0.000E+00  0.000E+00  0.000E+00  3.86921E+01  3.171E-01  2.000E+01  2.000E+04 -6.385E-01
   1   14   22     2     9    2.7407E+05 -6.8989E+03   2.8097E+05  0.000E+00  0.000E+00  0.000E+00  3.84490E+01  3.240E-01  2.000E+01  2.000E+04 -3.449E-01
   1   14   22     3     1    1.0356E+06 -1.4966E+04   1.0506E+06  0.000E+00  0.000E+00  0.000E+00  3.80457E+01  4.901E-01  2.000E+01  2.000E+04 -7.483E-01
   1   15   23     3     2    1.0506E+06 -2.2698E+04   1.0733E+06  0.000E+00  0.000E+00  0.000E+00  3.71621E+01  4.954E-01  2.000E+01  2.000E+04 -1.135E+00
   1   15   24     3     3    1.0733E+06 -1.9167E+04   1.0924E+06  0.000E+00  0.000E+00  0.000E+00  3.62790E+01  5.012E-01  2.000E+01  2.000E+04 -9.584E-01
   1   15   25     3     4    1.0924E+06 -1.8896E+04   1.1113E+06  0.000E+00  0.000E+00  0.000E+00  3.53954E+01  5.065E-01  2.000E+01  2.000E+04 -9.448E-01
   1   15   26     3     5    1.1113E+06 -2.1695E+04   1.1330E+06  0.000E+00  0.000E+00  0.000E+00  3.45121E+01  5.121E-01  2.000E+01  2.000E+04 -1.085E+00
   1   16   27     3     6    1.1330E+06 -2.8805E+04   1.1618E+06  0.000E+00  0.000E+00  0.000E+00  3.36301E+01  5.190E-01  2.000E+01  2.000E+04 -1.440E+00
   1   17   28     3     7    1.1618E+06 -3.5893E+04   1.1977E+06  0.000E+00  0.000E+00  0.000E+00  3.27499E+01  5.277E-01  2.000E+01  2.000E+04 -1.795E+00
   1   18   29     3     8    1.1977E+06 -4.6941E+04   1.2446E+06  0.000E+00  0.000E+00  0.000E+00  3.18721E+01  5.387E-01  2.000E+01  2.000E+04 -2.347E+00
   1   18   30     3     9    1.2446E+06 -4.3456E+04   1.2881E+06  0.000E+00  0.000E+00  0.000E+00  3.09950E+01  5.506E-01  2.000E+01  2.000E+04 -2.173E+00



1
  VOLUMETRIC BUDGET FOR ENTIRE MODEL AT END OF TIME STEP  1 IN STRESS PERIOD   3
  ------------------------------------------------------------------------------

     CUMULATIVE VOLUMES      L**3       RATES FOR THIS TIME STEP      L**3/T
     ------------------                 ------------------------

           IN:                                      IN:
           ---                                      ---
             STORAGE =    20004543.1319               STORAGE =        2645.9024
       CONSTANT HEAD =   311783030.8033         CONSTANT HEAD =     1166270.5480
            RECHARGE =     6292800.0000              RECHARGE =           0.0000
      STREAM LEAKAGE =           0.0000        STREAM LEAKAGE =           0.0000
        MANAGED FLOW =           0.0000          MANAGED FLOW =           0.0000

            TOTAL IN =   338080373.9352              TOTAL IN =     1168916.4504

          OUT:                                     OUT:
          ----                                     ----
             STORAGE =       46874.1885               STORAGE =         415.1458
       CONSTANT HEAD =           0.0000         CONSTANT HEAD =           0.0000
            RECHARGE =           0.0000              RECHARGE =           0.0000
      STREAM LEAKAGE =   323066799.5406        STREAM LEAKAGE =     1138103.8735
        MANAGED FLOW =    14966794.6162          MANAGED FLOW =       30398.1265

           TOTAL OUT =   338080468.3453             TOTAL OUT =     1168917.1457

            IN - OUT =         -94.4101              IN - OUT =          -0.6954

 PERCENT DISCREPANCY =           0.00     PERCENT DISCREPANCY =           0.00






          TIME SUMMARY AT END OF TIME STEP   1 IN STRESS PERIOD    3
                    SECONDS     MINUTES      HOURS       DAYS        YEARS
                    -----------------------------------------------------------
   TIME STEP LENGTH 7.86240E+06 1.31040E+05  2184.0      91.000     0.24914    
 STRESS PERIOD TIME 7.86240E+06 1.31040E+05  2184.0      91.000     0.24914    
         TOTAL TIME 2.36736E+07 3.94560E+05  6576.0      274.00     0.75017    
1
1
                            STRESS PERIOD NO.    4, LENGTH =   91.00000    
                            -----------------------------------------------

                              NUMBER OF TIME STEPS =     1

                               MULTIPLIER FOR DELT =     1.500

                            INITIAL TIME STEP SIZE =   91.00000    

                 RECHARGE =  1.000000E-03

 REUSING STREAM SEGMENT DATA FROM LAST STRESS PERIOD
 
 SOLVING FOR HEAD 


     5 CALLS TO PCG ROUTINE FOR TIME STEP   1 IN STRESS PERIOD    4
    17 TOTAL ITERATIONS

 HEAD/DRAWDOWN PRINTOUT FLAG = 1     TOTAL BUDGET PRINTOUT FLAG = 1
 CELL-BY-CELL FLOW TERM FLAG = 1

 OUTPUT FLAGS FOR ALL LAYERS ARE THE SAME:
   HEAD    DRAWDOWN  HEAD  DRAWDOWN
 PRINTOUT  PRINTOUT  SAVE    SAVE
 ----------------------------------
     0         0       0       0



 STREAM LISTING     PERIOD      4   STEP        1

 LAYER ROW COL. STREAM  RCH.  FLOW INTO     FLOW TO   FLOW OUT OF   OVRLND.     DIRECT     STREAM       STREAM     STREAM     STREAM   STREAMBED  STREAMBED
                SEG.NO.  NO.  STRM. RCH.    AQUIFER    STRM. RCH.    RUNOFF     PRECIP       ET          HEAD       DEPTH      WIDTH   CONDCTNC.   GRADIENT

   1   13    1     1     1    1.0000E+05 -2.7831E+04   1.2783E+05  0.000E+00  0.000E+00  0.000E+00  4.84178E+01  1.564E-01  2.000E+01  2.000E+04 -1.392E+00
   1   13    2     1     2    1.2783E+05 -3.7556E+04   1.6539E+05  0.000E+00  0.000E+00  0.000E+00  4.79661E+01  1.820E-01  2.000E+01  2.000E+04 -1.878E+00
   1   14    3     1     3    1.6539E+05 -3.3028E+04   1.9842E+05  0.000E+00  0.000E+00  0.000E+00  4.75139E+01  2.071E-01  2.000E+01  2.000E+04 -1.651E+00
   1   15    4     1     4    1.9842E+05 -3.2256E+04   2.3067E+05  0.000E+00  0.000E+00  0.000E+00  4.70582E+01  2.287E-01  2.000E+01  2.000E+04 -1.613E+00
   1   16    5     1     5    2.3067E+05 -3.3776E+04   2.6445E+05  0.000E+00  0.000E+00  0.000E+00  4.66015E+01  2.492E-01  2.000E+01  2.000E+04 -1.689E+00
   1   16    6     1     6    2.6445E+05 -2.9474E+04   2.9392E+05  0.000E+00  0.000E+00  0.000E+00  4.61428E+01  2.678E-01  2.000E+01  2.000E+04 -1.474E+00
   1   16    7     1     7    2.9392E+05 -2.9252E+04   3.2317E+05  0.000E+00  0.000E+00  0.000E+00  4.56821E+01  2.844E-01  2.000E+01  2.000E+04 -1.463E+00
   1   16    8     1     8    3.2317E+05 -2.9374E+04   3.5255E+05  0.000E+00  0.000E+00  0.000E+00  4.52208E+01  3.003E-01  2.000E+01  2.000E+04 -1.469E+00
   1   16    9     1     9    3.5255E+05 -2.9369E+04   3.8192E+05  0.000E+00  0.000E+00  0.000E+00  4.47589E+01  3.157E-01  2.000E+01  2.000E+04 -1.468E+00
   1   16   10     1    10    3.8192E+05 -2.9272E+04   4.1119E+05  0.000E+00  0.000E+00  0.000E+00  4.42965E+01  3.306E-01  2.000E+01  2.000E+04 -1.464E+00
   1   16   11     1    11    4.1119E+05 -2.9656E+04   4.4085E+05  0.000E+00  0.000E+00  0.000E+00  4.38338E+01  3.451E-01  2.000E+01  2.000E+04 -1.483E+00
   1   16   12     1    12    4.4085E+05 -3.4526E+04   4.7537E+05  0.000E+00  0.000E+00  0.000E+00  4.33719E+01  3.605E-01  2.000E+01  2.000E+04 -1.726E+00
   1   15   13     1    13    4.7537E+05 -3.2632E+04   5.0800E+05  0.000E+00  0.000E+00  0.000E+00  4.29102E+01  3.761E-01  2.000E+01  2.000E+04 -1.632E+00
   1   14   14     1    14    5.0800E+05 -3.2830E+04   5.4083E+05  0.000E+00  0.000E+00  0.000E+00  4.24478E+01  3.910E-01  2.000E+01  2.000E+04 -1.641E+00
   1   13   15     1    15    5.4083E+05 -3.5264E+04   5.7610E+05  0.000E+00  0.000E+00  0.000E+00  4.19855E+01  4.060E-01  2.000E+01  2.000E+04 -1.763E+00
   1   12   16     1    16    5.7610E+05 -4.2220E+04   6.1832E+05  0.000E+00  0.000E+00  0.000E+00  4.15249E+01  4.227E-01  2.000E+01  2.000E+04 -2.111E+00
   1   12   17     1    17    6.1832E+05 -3.2685E+04   6.5100E+05  0.000E+00  0.000E+00  0.000E+00  4.10634E+01  4.384E-01  2.000E+01  2.000E+04 -1.634E+00
   1   12   18     1    18    6.5100E+05 -3.1198E+04   6.8220E+05  0.000E+00  0.000E+00  0.000E+00  4.05992E+01  4.515E-01  2.000E+01  2.000E+04 -1.560E+00
   1   12   19     1    19    6.8220E+05 -3.5558E+04   7.1776E+05  0.000E+00  0.000E+00  0.000E+00  4.01354E+01  4.649E-01  2.000E+01  2.000E+04 -1.778E+00
   1   13   20     1    20    7.1776E+05 -2.5303E+04   7.4306E+05  0.000E+00  0.000E+00  0.000E+00  3.96701E+01  4.769E-01  2.000E+01  2.000E+04 -1.265E+00
   1   14   21     1    21    7.4306E+05 -1.8221E+04   7.6128E+05  0.000E+00  0.000E+00  0.000E+00  3.92013E+01  4.854E-01  2.000E+01  2.000E+04 -9.110E-01
   1   14   22     1    22    7.6128E+05 -1.3716E+03   7.6265E+05  0.000E+00  0.000E+00  0.000E+00  3.87278E+01  4.892E-01  2.000E+01  2.000E+04 -6.858E-02
   1    9   30     2     1    5.0000E+04 -2.6539E+04   7.6539E+04  0.000E+00  0.000E+00  0.000E+00  4.02584E+01  1.334E-01  2.000E+01  2.000E+04 -1.327E+00
   1    9   29     2     2    7.6539E+04 -2.9003E+04   1.0554E+05  0.000E+00  0.000E+00  0.000E+00  4.00410E+01  1.660E-01  2.000E+01  2.000E+04 -1.450E+00
   1    9   28     2     3    1.0554E+05 -3.3286E+04   1.3883E+05  0.000E+00  0.000E+00  0.000E+00  3.98231E+01  1.981E-01  2.000E+01  2.000E+04 -1.664E+00
   1    9   27     2     4    1.3883E+05 -4.7414E+04   1.8624E+05  0.000E+00  0.000E+00  0.000E+00  3.96100E+01  2.350E-01  2.000E+01  2.000E+04 -2.371E+00
   1   10   26     2     5    1.8624E+05 -3.3253E+04   2.1949E+05  0.000E+00  0.000E+00  0.000E+00  3.93935E+01  2.685E-01  2.000E+01  2.000E+04 -1.663E+00
   1   11   25     2     6    2.1949E+05 -2.4648E+04   2.4414E+05  0.000E+00  0.000E+00  0.000E+00  3.91658E+01  2.908E-01  2.000E+01  2.000E+04 -1.232E+00
   1   12   24     2     7    2.4414E+05 -1.7802E+04   2.6194E+05  0.000E+00  0.000E+00  0.000E+00  3.89315E+01  3.065E-01  2.000E+01  2.000E+04 -8.901E-01
   1   13   23     2     8    2.6194E+05 -1.2472E+04   2.7442E+05  0.000E+00  0.000E+00  0.000E+00  3.86924E+01  3.174E-01  2.000E+01  2.000E+04 -6.236E-01
   1   14   22     2     9    2.7442E+05 -6.9431E+03   2.8136E+05  0.000E+00  0.000E+00  0.000E+00  3.84493E+01  3.243E-01  2.000E+01  2.000E+04 -3.472E-01
   1   14   22     3     1    1.0440E+06 -1.4968E+04   1.0590E+06  0.000E+00  0.000E+00  0.000E+00  3.80480E+01  4.925E-01  2.000E+01  2.000E+04 -7.484E-01
   1   15   23     3     2    1.0590E+06 -2.2654E+04   1.0816E+06  0.000E+00  0.000E+00  0.000E+00  3.71644E+01  4.977E-01  2.000E+01  2.000E+04 -1.133E+00
   1   15   24     3     3    1.0816E+06 -1.8554E+04   1.1002E+06  0.000E+00  0.000E+00  0.000E+00  3.62812E+01  5.035E-01  2.000E+01  2.000E+04 -9.277E-01
   1   15   25     3     4    1.1002E+06 -1.7324E+04   1.1175E+06  0.000E+00  0.000E+00  0.000E+00  3.53973E+01  5.084E-01  2.000E+01  2.000E+04 -8.662E-01
   1   15   26     3     5    1.1175E+06 -2.0964E+04   1.1385E+06  0.000E+00  0.000E+00  0.000E+00  3.45137E+01  5.137E-01  2.000E+01  2.000E+04 -1.048E+00
   1   16   27     3     6    1.1385E+06 -2.8835E+04   1.1673E+06  0.000E+00  0.000E+00  0.000E+00  3.36316E+01  5.204E-01  2.000E+01  2.000E+04 -1.442E+00
   1   17   28     3     7    1.1673E+06 -3.6107E+04   1.2034E+06  0.000E+00  0.000E+00  0.000E+00  3.27514E+01  5.292E-01  2.000E+01  2.000E+04 -1.805E+00
   1   18   29     3     8    1.2034E+06 -4.7207E+04   1.2506E+06  0.000E+00  0.000E+00  0.000E+00  3.18736E+01  5.403E-01  2.000E+01  2.000E+04 -2.360E+00
   1   18   30     3     9    1.2506E+06 -4.3677E+04   1.2943E+06  0.000E+00  0.000E+00  0.000E+00  3.09966E+01  5.522E-01  2.000E+01  2.000E+04 -2.184E+00



1
  VOLUMETRIC BUDGET FOR ENTIRE MODEL AT END OF TIME STEP  1 IN STRESS PERIOD   4
  ------------------------------------------------------------------------------

     CUMULATIVE VOLUMES      L**3       RATES FOR THIS TIME STEP      L**3/T
     ------------------                 ------------------------

           IN:                                      IN:
           ---                                      ---
             STORAGE =    20008462.5766               STORAGE =          43.0708
       CONSTANT HEAD =   416983067.9956         CONSTANT HEAD =     1156044.3648
            RECHARGE =     8804400.0000              RECHARGE =       27600.0000
      STREAM LEAKAGE =           0.0000        STREAM LEAKAGE =           0.0000
        MANAGED FLOW =           0.0000          MANAGED FLOW =           0.0000

            TOTAL IN =   445795930.5722              TOTAL IN =     1183687.4356

          OUT:                                     OUT:
          ----                                     ----
             STORAGE =      145977.2751               STORAGE =        1089.0449
       CONSTANT HEAD =           0.0000         CONSTANT HEAD =           0.0000
            RECHARGE =           0.0000              RECHARGE =           0.0000
      STREAM LEAKAGE =   427198351.4740        STREAM LEAKAGE =     1144302.7685
        MANAGED FLOW =    18451665.6987          MANAGED FLOW =       38295.2866

           TOTAL OUT =   445795994.4479             TOTAL OUT =     1183687.1000

            IN - OUT =         -63.8757              IN - OUT =           0.3355

 PERCENT DISCREPANCY =           0.00     PERCENT DISCREPANCY =           0.00






          TIME SUMMARY AT END OF TIME STEP   1 IN STRESS PERIOD    4
                    SECONDS     MINUTES      HOURS       DAYS        YEARS
                    -----------------------------------------------------------
   TIME STEP LENGTH 7.86240E+06 1.31040E+05  2184.0      91.000     0.24914    
 STRESS PERIOD TIME 7.86240E+06 1.31040E+05  2184.0      91.000     0.24914    
         TOTAL TIME 3.15360E+07 5.25600E+05  8760.0      365.00     0.99932    
1
1
                            STRESS PERIOD NO.    5, LENGTH =   92.00000    
                            -----------------------------------------------

                              NUMBER OF TIME STEPS =     1

                               MULTIPLIER FOR DELT =     1.500

                            INITIAL TIME STEP SIZE =   92.00000    

                 RECHARGE =  5.000000E-04

 REUSING STREAM SEGMENT DATA FROM LAST STRESS PERIOD
 
 SOLVING FOR HEAD 


     5 CALLS TO PCG ROUTINE FOR TIME STEP   1 IN STRESS PERIOD    5
    18 TOTAL ITERATIONS

 HEAD/DRAWDOWN PRINTOUT FLAG = 1     TOTAL BUDGET PRINTOUT FLAG = 1
 CELL-BY-CELL FLOW TERM FLAG = 1

 OUTPUT FLAGS FOR ALL LAYERS ARE THE SAME:
   HEAD    DRAWDOWN  HEAD  DRAWDOWN
 PRINTOUT  PRINTOUT  SAVE    SAVE
 ----------------------------------
     0         0       0       0



 STREAM LISTING     PERIOD      5   STEP        1

 LAYER ROW COL. STREAM  RCH.  FLOW INTO     FLOW TO   FLOW OUT OF   OVRLND.     DIRECT     STREAM       STREAM     STREAM     STREAM   STREAMBED  STREAMBED
                SEG.NO.  NO.  STRM. RCH.    AQUIFER    STRM. RCH.    RUNOFF     PRECIP       ET          HEAD       DEPTH      WIDTH   CONDCTNC.   GRADIENT

   1   13    1     1     1    1.0000E+05 -2.7616E+04   1.2762E+05  0.000E+00  0.000E+00  0.000E+00  4.84177E+01  1.563E-01  2.000E+01  2.000E+04 -1.381E+00
   1   13    2     1     2    1.2762E+05 -3.7297E+04   1.6491E+05  0.000E+00  0.000E+00  0.000E+00  4.79658E+01  1.817E-01  2.000E+01  2.000E+04 -1.865E+00
   1   14    3     1     3    1.6491E+05 -3.2767E+04   1.9768E+05  0.000E+00  0.000E+00  0.000E+00  4.75135E+01  2.067E-01  2.000E+01  2.000E+04 -1.638E+00
   1   15    4     1     4    1.9768E+05 -3.1995E+04   2.2967E+05  0.000E+00  0.000E+00  0.000E+00  4.70577E+01  2.281E-01  2.000E+01  2.000E+04 -1.600E+00
   1   16    5     1     5    2.2967E+05 -3.3521E+04   2.6320E+05  0.000E+00  0.000E+00  0.000E+00  4.66008E+01  2.485E-01  2.000E+01  2.000E+04 -1.676E+00
   1   16    6     1     6    2.6320E+05 -2.9236E+04   2.9243E+05  0.000E+00  0.000E+00  0.000E+00  4.61420E+01  2.670E-01  2.000E+01  2.000E+04 -1.462E+00
   1   16    7     1     7    2.9243E+05 -2.8993E+04   3.2142E+05  0.000E+00  0.000E+00  0.000E+00  4.56812E+01  2.835E-01  2.000E+01  2.000E+04 -1.450E+00
   1   16    8     1     8    3.2142E+05 -2.9079E+04   3.5050E+05  0.000E+00  0.000E+00  0.000E+00  4.52197E+01  2.993E-01  2.000E+01  2.000E+04 -1.454E+00
   1   16    9     1     9    3.5050E+05 -2.9016E+04   3.7952E+05  0.000E+00  0.000E+00  0.000E+00  4.47577E+01  3.146E-01  2.000E+01  2.000E+04 -1.451E+00
   1   16   10     1    10    3.7952E+05 -2.8821E+04   4.0834E+05  0.000E+00  0.000E+00  0.000E+00  4.42952E+01  3.293E-01  2.000E+01  2.000E+04 -1.441E+00
   1   16   11     1    11    4.0834E+05 -2.8999E+04   4.3734E+05  0.000E+00  0.000E+00  0.000E+00  4.38322E+01  3.436E-01  2.000E+01  2.000E+04 -1.450E+00
   1   16   12     1    12    4.3734E+05 -3.3226E+04   4.7056E+05  0.000E+00  0.000E+00  0.000E+00  4.33699E+01  3.585E-01  2.000E+01  2.000E+04 -1.661E+00
   1   15   13     1    13    4.7056E+05 -3.0851E+04   5.0142E+05  0.000E+00  0.000E+00  0.000E+00  4.29076E+01  3.735E-01  2.000E+01  2.000E+04 -1.543E+00
   1   14   14     1    14    5.0142E+05 -3.0717E+04   5.3213E+05  0.000E+00  0.000E+00  0.000E+00  4.24443E+01  3.875E-01  2.000E+01  2.000E+04 -1.536E+00
   1   13   15     1    15    5.3213E+05 -3.3291E+04   5.6542E+05  0.000E+00  0.000E+00  0.000E+00  4.19813E+01  4.018E-01  2.000E+01  2.000E+04 -1.665E+00
   1   12   16     1    16    5.6542E+05 -4.0980E+04   6.0640E+05  0.000E+00  0.000E+00  0.000E+00  4.15201E+01  4.179E-01  2.000E+01  2.000E+04 -2.049E+00
   1   12   17     1    17    6.0640E+05 -3.1358E+04   6.3776E+05  0.000E+00  0.000E+00  0.000E+00  4.10581E+01  4.331E-01  2.000E+01  2.000E+04 -1.568E+00
   1   12   18     1    18    6.3776E+05 -2.9973E+04   6.6773E+05  0.000E+00  0.000E+00  0.000E+00  4.05936E+01  4.458E-01  2.000E+01  2.000E+04 -1.499E+00
   1   12   19     1    19    6.6773E+05 -3.4559E+04   7.0229E+05  0.000E+00  0.000E+00  0.000E+00  4.01294E+01  4.589E-01  2.000E+01  2.000E+04 -1.728E+00
   1   13   20     1    20    7.0229E+05 -2.3855E+04   7.2615E+05  0.000E+00  0.000E+00  0.000E+00  3.96638E+01  4.706E-01  2.000E+01  2.000E+04 -1.193E+00
   1   14   21     1    21    7.2615E+05 -1.6833E+04   7.4298E+05  0.000E+00  0.000E+00  0.000E+00  3.91945E+01  4.786E-01  2.000E+01  2.000E+04 -8.416E-01
   1   14   22     1    22    7.4298E+05 -1.2124E+03   7.4419E+05  0.000E+00  0.000E+00  0.000E+00  3.87207E+01  4.821E-01  2.000E+01  2.000E+04 -6.062E-02
   1    9   30     2     1    5.0000E+04 -2.6468E+04   7.6468E+04  0.000E+00  0.000E+00  0.000E+00  4.02584E+01  1.334E-01  2.000E+01  2.000E+04 -1.323E+00
   1    9   29     2     2    7.6468E+04 -2.8934E+04   1.0540E+05  0.000E+00  0.000E+00  0.000E+00  4.00409E+01  1.659E-01  2.000E+01  2.000E+04 -1.447E+00
   1    9   28     2     3    1.0540E+05 -3.3218E+04   1.3862E+05  0.000E+00  0.000E+00  0.000E+00  3.98229E+01  1.979E-01  2.000E+01  2.000E+04 -1.661E+00
   1    9   27     2     4    1.3862E+05 -4.7317E+04   1.8594E+05  0.000E+00  0.000E+00  0.000E+00  3.96098E+01  2.348E-01  2.000E+01  2.000E+04 -2.366E+00
   1   10   26     2     5    1.8594E+05 -3.3266E+04   2.1920E+05  0.000E+00  0.000E+00  0.000E+00  3.93932E+01  2.682E-01  2.000E+01  2.000E+04 -1.663E+00
   1   11   25     2     6    2.1920E+05 -2.4888E+04   2.4409E+05  0.000E+00  0.000E+00  0.000E+00  3.91657E+01  2.907E-01  2.000E+01  2.000E+04 -1.244E+00
   1   12   24     2     7    2.4409E+05 -1.8261E+04   2.6235E+05  0.000E+00  0.000E+00  0.000E+00  3.89317E+01  3.067E-01  2.000E+01  2.000E+04 -9.130E-01
   1   13   23     2     8    2.6235E+05 -1.2761E+04   2.7511E+05  0.000E+00  0.000E+00  0.000E+00  3.86928E+01  3.178E-01  2.000E+01  2.000E+04 -6.381E-01
   1   14   22     2     9    2.7511E+05 -6.6340E+03   2.8175E+05  0.000E+00  0.000E+00  0.000E+00  3.84496E+01  3.246E-01  2.000E+01  2.000E+04 -3.317E-01
   1   14   22     3     1    1.0259E+06 -1.4769E+04   1.0407E+06  0.000E+00  0.000E+00  0.000E+00  3.80429E+01  4.874E-01  2.000E+01  2.000E+04 -7.384E-01
   1   15   23     3     2    1.0407E+06 -2.2211E+04   1.0629E+06  0.000E+00  0.000E+00  0.000E+00  3.71592E+01  4.926E-01  2.000E+01  2.000E+04 -1.111E+00
   1   15   24     3     3    1.0629E+06 -1.9021E+04   1.0819E+06  0.000E+00  0.000E+00  0.000E+00  3.62761E+01  4.983E-01  2.000E+01  2.000E+04 -9.511E-01
   1   15   25     3     4    1.0819E+06 -1.8891E+04   1.1008E+06  0.000E+00  0.000E+00  0.000E+00  3.53925E+01  5.036E-01  2.000E+01  2.000E+04 -9.446E-01
   1   15   26     3     5    1.1008E+06 -2.1781E+04   1.1226E+06  0.000E+00  0.000E+00  0.000E+00  3.45092E+01  5.092E-01  2.000E+01  2.000E+04 -1.089E+00
   1   16   27     3     6    1.1226E+06 -2.8866E+04   1.1515E+06  0.000E+00  0.000E+00  0.000E+00  3.36273E+01  5.161E-01  2.000E+01  2.000E+04 -1.443E+00
   1   17   28     3     7    1.1515E+06 -3.5964E+04   1.1874E+06  0.000E+00  0.000E+00  0.000E+00  3.27471E+01  5.249E-01  2.000E+01  2.000E+04 -1.798E+00
   1   18   29     3     8    1.1874E+06 -4.7014E+04   1.2345E+06  0.000E+00  0.000E+00  0.000E+00  3.18693E+01  5.360E-01  2.000E+01  2.000E+04 -2.351E+00
   1   18   30     3     9    1.2345E+06 -4.3544E+04   1.2780E+06  0.000E+00  0.000E+00  0.000E+00  3.09924E+01  5.480E-01  2.000E+01  2.000E+04 -2.177E+00



1
  VOLUMETRIC BUDGET FOR ENTIRE MODEL AT END OF TIME STEP  1 IN STRESS PERIOD   5
  ------------------------------------------------------------------------------

     CUMULATIVE VOLUMES      L**3       RATES FOR THIS TIME STEP      L**3/T
     ------------------                 ------------------------

           IN:                                      IN:
           ---                                      ---
             STORAGE =    20170176.5829               STORAGE =        1757.7609
       CONSTANT HEAD =   524253336.5461         CONSTANT HEAD =     1165981.1799
            RECHARGE =    10074000.0000              RECHARGE =       13800.0000
      STREAM LEAKAGE =           0.0000        STREAM LEAKAGE =           0.0000
        MANAGED FLOW =           0.0000          MANAGED FLOW =           0.0000

            TOTAL IN =   554497513.1289              TOTAL IN =     1181538.9408

          OUT:                                     OUT:
          ----                                     ----
             STORAGE =      150920.1403               STORAGE =          53.7268
       CONSTANT HEAD =           0.0000         CONSTANT HEAD =           0.0000
            RECHARGE =           0.0000              RECHARGE =           0.0000
      STREAM LEAKAGE =   530974454.8885        STREAM LEAKAGE =     1128001.1241
        MANAGED FLOW =    23372231.0288          MANAGED FLOW =       53484.4058

           TOTAL OUT =   554497606.0576             TOTAL OUT =     1181539.2566

            IN - OUT =         -92.9286              IN - OUT =          -0.3158

 PERCENT DISCREPANCY =           0.00     PERCENT DISCREPANCY =           0.00






          TIME SUMMARY AT END OF TIME STEP   1 IN STRESS PERIOD    5
                    SECONDS     MINUTES      HOURS       DAYS        YEARS
                    -----------------------------------------------------------
   TIME STEP LENGTH 7.94880E+06 1.32480E+05  2208.0      92.000     0.25188    
 STRESS PERIOD TIME 7.94880E+06 1.32480E+05  2208.0      92.000     0.25188    
         TOTAL TIME 3.94848E+07 6.58080E+05  10968.      457.00      1.2512    
1
1
                            STRESS PERIOD NO.    6, LENGTH =   91.00000    
                            -----------------------------------------------

                              NUMBER OF TIME STEPS =     1

                               MULTIPLIER FOR DELT =     1.500

                            INITIAL TIME STEP SIZE =   91.00000    

                 RECHARGE =  2.000000E-03

 REUSING STREAM SEGMENT DATA FROM LAST STRESS PERIOD
 
 SOLVING FOR HEAD 


     5 CALLS TO PCG ROUTINE FOR TIME STEP   1 IN STRESS PERIOD    6
    18 TOTAL ITERATIONS

 HEAD/DRAWDOWN PRINTOUT FLAG = 1     TOTAL BUDGET PRINTOUT FLAG = 1
 CELL-BY-CELL FLOW TERM FLAG = 1

 OUTPUT FLAGS FOR ALL LAYERS ARE THE SAME:
   HEAD    DRAWDOWN  HEAD  DRAWDOWN
 PRINTOUT  PRINTOUT  SAVE    SAVE
 ----------------------------------
     0         0       0       0



 STREAM LISTING     PERIOD      6   STEP        1

 LAYER ROW COL. STREAM  RCH.  FLOW INTO     FLOW TO   FLOW OUT OF   OVRLND.     DIRECT     STREAM       STREAM     STREAM     STREAM   STREAMBED  STREAMBED
                SEG.NO.  NO.  STRM. RCH.    AQUIFER    STRM. RCH.    RUNOFF     PRECIP       ET          HEAD       DEPTH      WIDTH   CONDCTNC.   GRADIENT

   1   13    1     1     1    1.0000E+05 -2.8280E+04   1.2828E+05  0.000E+00  0.000E+00  0.000E+00  4.84180E+01  1.566E-01  2.000E+01  2.000E+04 -1.414E+00
   1   13    2     1     2    1.2828E+05 -3.8092E+04   1.6637E+05  0.000E+00  0.000E+00  0.000E+00  4.79666E+01  1.825E-01  2.000E+01  2.000E+04 -1.905E+00
   1   14    3     1     3    1.6637E+05 -3.3550E+04   1.9992E+05  0.000E+00  0.000E+00  0.000E+00  4.75148E+01  2.080E-01  2.000E+01  2.000E+04 -1.677E+00
   1   15    4     1     4    1.9992E+05 -3.2755E+04   2.3268E+05  0.000E+00  0.000E+00  0.000E+00  4.70593E+01  2.298E-01  2.000E+01  2.000E+04 -1.638E+00
   1   16    5     1     5    2.3268E+05 -3.4223E+04   2.6690E+05  0.000E+00  0.000E+00  0.000E+00  4.66028E+01  2.505E-01  2.000E+01  2.000E+04 -1.711E+00
   1   16    6     1     6    2.6690E+05 -2.9860E+04   2.9676E+05  0.000E+00  0.000E+00  0.000E+00  4.61444E+01  2.694E-01  2.000E+01  2.000E+04 -1.493E+00
   1   16    7     1     7    2.9676E+05 -2.9632E+04   3.2639E+05  0.000E+00  0.000E+00  0.000E+00  4.56838E+01  2.861E-01  2.000E+01  2.000E+04 -1.482E+00
   1   16    8     1     8    3.2639E+05 -2.9752E+04   3.5615E+05  0.000E+00  0.000E+00  0.000E+00  4.52226E+01  3.021E-01  2.000E+01  2.000E+04 -1.488E+00
   1   16    9     1     9    3.5615E+05 -2.9740E+04   3.8589E+05  0.000E+00  0.000E+00  0.000E+00  4.47608E+01  3.177E-01  2.000E+01  2.000E+04 -1.487E+00
   1   16   10     1    10    3.8589E+05 -2.9632E+04   4.1552E+05  0.000E+00  0.000E+00  0.000E+00  4.42986E+01  3.327E-01  2.000E+01  2.000E+04 -1.482E+00
   1   16   11     1    11    4.1552E+05 -3.0003E+04   4.4552E+05  0.000E+00  0.000E+00  0.000E+00  4.38359E+01  3.473E-01  2.000E+01  2.000E+04 -1.500E+00
   1   16   12     1    12    4.4552E+05 -3.4887E+04   4.8041E+05  0.000E+00  0.000E+00  0.000E+00  4.33742E+01  3.628E-01  2.000E+01  2.000E+04 -1.744E+00
   1   15   13     1    13    4.8041E+05 -3.3015E+04   5.1342E+05  0.000E+00  0.000E+00  0.000E+00  4.29126E+01  3.785E-01  2.000E+01  2.000E+04 -1.651E+00
   1   14   14     1    14    5.1342E+05 -3.3211E+04   5.4663E+05  0.000E+00  0.000E+00  0.000E+00  4.24503E+01  3.935E-01  2.000E+01  2.000E+04 -1.661E+00
   1   13   15     1    15    5.4663E+05 -3.5649E+04   5.8228E+05  0.000E+00  0.000E+00  0.000E+00  4.19881E+01  4.086E-01  2.000E+01  2.000E+04 -1.782E+00
   1   12   16     1    16    5.8228E+05 -4.2627E+04   6.2491E+05  0.000E+00  0.000E+00  0.000E+00  4.15276E+01  4.254E-01  2.000E+01  2.000E+04 -2.131E+00
   1   12   17     1    17    6.2491E+05 -3.2975E+04   6.5788E+05  0.000E+00  0.000E+00  0.000E+00  4.10662E+01  4.412E-01  2.000E+01  2.000E+04 -1.649E+00
   1   12   18     1    18    6.5788E+05 -3.1449E+04   6.8933E+05  0.000E+00  0.000E+00  0.000E+00  4.06021E+01  4.543E-01  2.000E+01  2.000E+04 -1.572E+00
   1   12   19     1    19    6.8933E+05 -3.5786E+04   7.2512E+05  0.000E+00  0.000E+00  0.000E+00  4.01383E+01  4.678E-01  2.000E+01  2.000E+04 -1.789E+00
   1   13   20     1    20    7.2512E+05 -2.5380E+04   7.5050E+05  0.000E+00  0.000E+00  0.000E+00  3.96730E+01  4.798E-01  2.000E+01  2.000E+04 -1.269E+00
   1   14   21     1    21    7.5050E+05 -1.8144E+04   7.6864E+05  0.000E+00  0.000E+00  0.000E+00  3.92042E+01  4.883E-01  2.000E+01  2.000E+04 -9.072E-01
   1   14   22     1    22    7.6864E+05 -7.9479E+02   7.6944E+05  0.000E+00  0.000E+00  0.000E+00  3.87306E+01  4.919E-01  2.000E+01  2.000E+04 -3.974E-02
   1    9   30     2     1    5.0000E+04 -2.6424E+04   7.6424E+04  0.000E+00  0.000E+00  0.000E+00  4.02584E+01  1.334E-01  2.000E+01  2.000E+04 -1.321E+00
   1    9   29     2     2    7.6424E+04 -2.8867E+04   1.0529E+05  0.000E+00  0.000E+00  0.000E+00  4.00408E+01  1.658E-01  2.000E+01  2.000E+04 -1.443E+00
   1    9   28     2     3    1.0529E+05 -3.3128E+04   1.3842E+05  0.000E+00  0.000E+00  0.000E+00  3.98227E+01  1.977E-01  2.000E+01  2.000E+04 -1.656E+00
   1    9   27     2     4    1.3842E+05 -4.7278E+04   1.8570E+05  0.000E+00  0.000E+00  0.000E+00  3.96096E+01  2.346E-01  2.000E+01  2.000E+04 -2.364E+00
   1   10   26     2     5    1.8570E+05 -3.2462E+04   2.1816E+05  0.000E+00  0.000E+00  0.000E+00  3.93927E+01  2.677E-01  2.000E+01  2.000E+04 -1.623E+00
   1   11   25     2     6    2.1816E+05 -2.2615E+04   2.4077E+05  0.000E+00  0.000E+00  0.000E+00  3.91641E+01  2.891E-01  2.000E+01  2.000E+04 -1.131E+00
   1   12   24     2     7    2.4077E+05 -1.4530E+04   2.5530E+05  0.000E+00  0.000E+00  0.000E+00  3.89279E+01  3.029E-01  2.000E+01  2.000E+04 -7.265E-01
   1   13   23     2     8    2.5530E+05 -9.7439E+03   2.6505E+05  0.000E+00  0.000E+00  0.000E+00  3.86867E+01  3.117E-01  2.000E+01  2.000E+04 -4.872E-01
   1   14   22     2     9    2.6505E+05 -6.5555E+03   2.7160E+05  0.000E+00  0.000E+00  0.000E+00  3.84425E+01  3.175E-01  2.000E+01  2.000E+04 -3.278E-01
   1   14   22     3     1    1.0410E+06 -1.4463E+04   1.0555E+06  0.000E+00  0.000E+00  0.000E+00  3.80471E+01  4.916E-01  2.000E+01  2.000E+04 -7.232E-01
   1   15   23     3     2    1.0555E+06 -2.1088E+04   1.0766E+06  0.000E+00  0.000E+00  0.000E+00  3.71632E+01  4.966E-01  2.000E+01  2.000E+04 -1.054E+00
   1   15   24     3     3    1.0766E+06 -1.4243E+04   1.0908E+06  0.000E+00  0.000E+00  0.000E+00  3.62793E+01  5.015E-01  2.000E+01  2.000E+04 -7.122E-01
   1   15   25     3     4    1.0908E+06 -8.0637E+03   1.0989E+06  0.000E+00  0.000E+00  0.000E+00  3.53935E+01  5.046E-01  2.000E+01  2.000E+04 -4.032E-01
   1   15   26     3     5    1.0989E+06 -1.5800E+04   1.1147E+06  0.000E+00  0.000E+00  0.000E+00  3.45079E+01  5.079E-01  2.000E+01  2.000E+04 -7.900E-01
   1   16   27     3     6    1.1147E+06 -2.7407E+04   1.1421E+06  0.000E+00  0.000E+00  0.000E+00  3.36249E+01  5.138E-01  2.000E+01  2.000E+04 -1.370E+00
   1   17   28     3     7    1.1421E+06 -3.5654E+04   1.1778E+06  0.000E+00  0.000E+00  0.000E+00  3.27446E+01  5.223E-01  2.000E+01  2.000E+04 -1.783E+00
   1   18   29     3     8    1.1778E+06 -4.7167E+04   1.2249E+06  0.000E+00  0.000E+00  0.000E+00  3.18668E+01  5.335E-01  2.000E+01  2.000E+04 -2.358E+00
   1   18   30     3     9    1.2249E+06 -4.3629E+04   1.2686E+06  0.000E+00  0.000E+00  0.000E+00  3.09899E+01  5.455E-01  2.000E+01  2.000E+04 -2.181E+00



1
  VOLUMETRIC BUDGET FOR ENTIRE MODEL AT END OF TIME STEP  1 IN STRESS PERIOD   6
  ------------------------------------------------------------------------------

     CUMULATIVE VOLUMES      L**3       RATES FOR THIS TIME STEP      L**3/T
     ------------------                 ------------------------

           IN:                                      IN:
           ---                                      ---
             STORAGE =    20210951.2001               STORAGE =         448.0727
       CONSTANT HEAD =   628511670.9687         CONSTANT HEAD =     1145695.9827
            RECHARGE =    15097200.0000              RECHARGE =       55200.0000
      STREAM LEAKAGE =           0.0000        STREAM LEAKAGE =           0.0000
        MANAGED FLOW =           0.0000          MANAGED FLOW =           0.0000

            TOTAL IN =   663819822.1688              TOTAL IN =     1201344.0554

          OUT:                                     OUT:
          ----                                     ----
             STORAGE =      404764.2893               STORAGE =        2789.4961
       CONSTANT HEAD =           0.0000         CONSTANT HEAD =           0.0000
            RECHARGE =           0.0000              RECHARGE =           0.0000
      STREAM LEAKAGE =   632762866.1974        STREAM LEAKAGE =     1118553.9704
        MANAGED FLOW =    30652230.8066          MANAGED FLOW =       79999.9976

           TOTAL OUT =   663819861.2934             TOTAL OUT =     1201343.4641

            IN - OUT =         -39.1246              IN - OUT =           0.5913

 PERCENT DISCREPANCY =           0.00     PERCENT DISCREPANCY =           0.00






          TIME SUMMARY AT END OF TIME STEP   1 IN STRESS PERIOD    6
                    SECONDS     MINUTES      HOURS       DAYS        YEARS
                    -----------------------------------------------------------
   TIME STEP LENGTH 7.86240E+06 1.31040E+05  2184.0      91.000     0.24914    
 STRESS PERIOD TIME 7.86240E+06 1.31040E+05  2184.0      91.000     0.24914    
         TOTAL TIME 4.73472E+07 7.89120E+05  13152.      548.00      1.5003    
1
1
                            STRESS PERIOD NO.    7, LENGTH =   91.00000    
                            -----------------------------------------------

                              NUMBER OF TIME STEPS =     1

                               MULTIPLIER FOR DELT =     1.500

                            INITIAL TIME STEP SIZE =   91.00000    

                 RECHARGE =   0.00000    

 REUSING STREAM SEGMENT DATA FROM LAST STRESS PERIOD
 
 SOLVING FOR HEAD 


     5 CALLS TO PCG ROUTINE FOR TIME STEP   1 IN STRESS PERIOD    7
    18 TOTAL ITERATIONS

 HEAD/DRAWDOWN PRINTOUT FLAG = 1     TOTAL BUDGET PRINTOUT FLAG = 1
 CELL-BY-CELL FLOW TERM FLAG = 1

 OUTPUT FLAGS FOR ALL LAYERS ARE THE SAME:
   HEAD    DRAWDOWN  HEAD  DRAWDOWN
 PRINTOUT  PRINTOUT  SAVE    SAVE
 ----------------------------------
     0         0       0       0



 STREAM LISTING     PERIOD      7   STEP        1

 LAYER ROW COL. STREAM  RCH.  FLOW INTO     FLOW TO   FLOW OUT OF   OVRLND.     DIRECT     STREAM       STREAM     STREAM     STREAM   STREAMBED  STREAMBED
                SEG.NO.  NO.  STRM. RCH.    AQUIFER    STRM. RCH.    RUNOFF     PRECIP       ET          HEAD       DEPTH      WIDTH   CONDCTNC.   GRADIENT

   1   13    1     1     1    1.0000E+05 -2.7437E+04   1.2744E+05  0.000E+00  0.000E+00  0.000E+00  4.84176E+01  1.563E-01  2.000E+01  2.000E+04 -1.372E+00
   1   13    2     1     2    1.2744E+05 -3.7087E+04   1.6452E+05  0.000E+00  0.000E+00  0.000E+00  4.79656E+01  1.815E-01  2.000E+01  2.000E+04 -1.854E+00
   1   14    3     1     3    1.6452E+05 -3.2565E+04   1.9709E+05  0.000E+00  0.000E+00  0.000E+00  4.75132E+01  2.064E-01  2.000E+01  2.000E+04 -1.628E+00
   1   15    4     1     4    1.9709E+05 -3.1808E+04   2.2890E+05  0.000E+00  0.000E+00  0.000E+00  4.70572E+01  2.277E-01  2.000E+01  2.000E+04 -1.590E+00
   1   16    5     1     5    2.2890E+05 -3.3369E+04   2.6227E+05  0.000E+00  0.000E+00  0.000E+00  4.66003E+01  2.480E-01  2.000E+01  2.000E+04 -1.668E+00
   1   16    6     1     6    2.6227E+05 -2.9120E+04   2.9139E+05  0.000E+00  0.000E+00  0.000E+00  4.61415E+01  2.665E-01  2.000E+01  2.000E+04 -1.456E+00
   1   16    7     1     7    2.9139E+05 -2.8902E+04   3.2029E+05  0.000E+00  0.000E+00  0.000E+00  4.56806E+01  2.829E-01  2.000E+01  2.000E+04 -1.445E+00
   1   16    8     1     8    3.2029E+05 -2.9023E+04   3.4931E+05  0.000E+00  0.000E+00  0.000E+00  4.52191E+01  2.987E-01  2.000E+01  2.000E+04 -1.451E+00
   1   16    9     1     9    3.4931E+05 -2.9018E+04   3.7833E+05  0.000E+00  0.000E+00  0.000E+00  4.47571E+01  3.139E-01  2.000E+01  2.000E+04 -1.451E+00
   1   16   10     1    10    3.7833E+05 -2.8921E+04   4.0725E+05  0.000E+00  0.000E+00  0.000E+00  4.42946E+01  3.287E-01  2.000E+01  2.000E+04 -1.446E+00
   1   16   11     1    11    4.0725E+05 -2.9298E+04   4.3655E+05  0.000E+00  0.000E+00  0.000E+00  4.38318E+01  3.431E-01  2.000E+01  2.000E+04 -1.465E+00
   1   16   12     1    12    4.3655E+05 -3.4104E+04   4.7065E+05  0.000E+00  0.000E+00  0.000E+00  4.33697E+01  3.584E-01  2.000E+01  2.000E+04 -1.705E+00
   1   15   13     1    13    4.7065E+05 -3.2166E+04   5.0282E+05  0.000E+00  0.000E+00  0.000E+00  4.29079E+01  3.739E-01  2.000E+01  2.000E+04 -1.608E+00
   1   14   14     1    14    5.0282E+05 -3.2348E+04   5.3517E+05  0.000E+00  0.000E+00  0.000E+00  4.24453E+01  3.885E-01  2.000E+01  2.000E+04 -1.617E+00
   1   13   15     1    15    5.3517E+05 -3.4789E+04   5.6996E+05  0.000E+00  0.000E+00  0.000E+00  4.19830E+01  4.034E-01  2.000E+01  2.000E+04 -1.739E+00
   1   12   16     1    16    5.6996E+05 -4.1769E+04   6.1172E+05  0.000E+00  0.000E+00  0.000E+00  4.15222E+01  4.200E-01  2.000E+01  2.000E+04 -2.088E+00
   1   12   17     1    17    6.1172E+05 -3.2319E+04   6.4404E+05  0.000E+00  0.000E+00  0.000E+00  4.10606E+01  4.356E-01  2.000E+01  2.000E+04 -1.616E+00
   1   12   18     1    18    6.4404E+05 -3.0852E+04   6.7489E+05  0.000E+00  0.000E+00  0.000E+00  4.05963E+01  4.486E-01  2.000E+01  2.000E+04 -1.543E+00
   1   12   19     1    19    6.7489E+05 -3.5192E+04   7.1009E+05  0.000E+00  0.000E+00  0.000E+00  4.01324E+01  4.619E-01  2.000E+01  2.000E+04 -1.760E+00
   1   13   20     1    20    7.1009E+05 -2.4969E+04   7.3506E+05  0.000E+00  0.000E+00  0.000E+00  3.96670E+01  4.739E-01  2.000E+01  2.000E+04 -1.248E+00
   1   14   21     1    21    7.3506E+05 -1.7954E+04   7.5301E+05  0.000E+00  0.000E+00  0.000E+00  3.91982E+01  4.823E-01  2.000E+01  2.000E+04 -8.977E-01
   1   14   22     1    22    7.5301E+05 -1.3830E+03   7.5439E+05  0.000E+00  0.000E+00  0.000E+00  3.87246E+01  4.860E-01  2.000E+01  2.000E+04 -6.915E-02
   1    9   30     2     1    5.0000E+04 -2.6320E+04   7.6320E+04  0.000E+00  0.000E+00  0.000E+00  4.02583E+01  1.333E-01  2.000E+01  2.000E+04 -1.316E+00
   1    9   29     2     2    7.6320E+04 -2.8787E+04   1.0511E+05  0.000E+00  0.000E+00  0.000E+00  4.00406E+01  1.656E-01  2.000E+01  2.000E+04 -1.439E+00
   1    9   28     2     3    1.0511E+05 -3.3069E+04   1.3818E+05  0.000E+00  0.000E+00  0.000E+00  3.98225E+01  1.975E-01  2.000E+01  2.000E+04 -1.653E+00
   1    9   27     2     4    1.3818E+05 -4.7143E+04   1.8532E+05  0.000E+00  0.000E+00  0.000E+00  3.96094E+01  2.344E-01  2.000E+01  2.000E+04 -2.357E+00
   1   10   26     2     5    1.8532E+05 -3.3085E+04   2.1840E+05  0.000E+00  0.000E+00  0.000E+00  3.93927E+01  2.677E-01  2.000E+01  2.000E+04 -1.654E+00
   1   11   25     2     6    2.1840E+05 -2.4723E+04   2.4313E+05  0.000E+00  0.000E+00  0.000E+00  3.91651E+01  2.901E-01  2.000E+01  2.000E+04 -1.236E+00
   1   12   24     2     7    2.4313E+05 -1.8146E+04   2.6127E+05  0.000E+00  0.000E+00  0.000E+00  3.89309E+01  3.059E-01  2.000E+01  2.000E+04 -9.073E-01
   1   13   23     2     8    2.6127E+05 -1.2766E+04   2.7404E+05  0.000E+00  0.000E+00  0.000E+00  3.86920E+01  3.170E-01  2.000E+01  2.000E+04 -6.383E-01
   1   14   22     2     9    2.7404E+05 -6.8963E+03   2.8094E+05  0.000E+00  0.000E+00  0.000E+00  3.84490E+01  3.240E-01  2.000E+01  2.000E+04 -3.448E-01
   1   14   22     3     1    1.0353E+06 -1.4964E+04   1.0503E+06  0.000E+00  0.000E+00  0.000E+00  3.80456E+01  4.900E-01  2.000E+01  2.000E+04 -7.482E-01
   1   15   23     3     2    1.0503E+06 -2.2694E+04   1.0730E+06  0.000E+00  0.000E+00  0.000E+00  3.71620E+01  4.953E-01  2.000E+01  2.000E+04 -1.135E+00
   1   15   24     3     3    1.0730E+06 -1.9164E+04   1.0922E+06  0.000E+00  0.000E+00  0.000E+00  3.62789E+01  5.012E-01  2.000E+01  2.000E+04 -9.582E-01
   1   15   25     3     4    1.0922E+06 -1.8893E+04   1.1110E+06  0.000E+00  0.000E+00  0.000E+00  3.53953E+01  5.064E-01  2.000E+01  2.000E+04 -9.446E-01
   1   15   26     3     5    1.1110E+06 -2.1692E+04   1.1327E+06  0.000E+00  0.000E+00  0.000E+00  3.45120E+01  5.120E-01  2.000E+01  2.000E+04 -1.085E+00
   1   16   27     3     6    1.1327E+06 -2.8801E+04   1.1615E+06  0.000E+00  0.000E+00  0.000E+00  3.36300E+01  5.189E-01  2.000E+01  2.000E+04 -1.440E+00
   1   17   28     3     7    1.1615E+06 -3.5889E+04   1.1974E+06  0.000E+00  0.000E+00  0.000E+00  3.27498E+01  5.276E-01  2.000E+01  2.000E+04 -1.794E+00
   1   18   29     3     8    1.1974E+06 -4.6937E+04   1.2444E+06  0.000E+00  0.000E+00  0.000E+00  3.18720E+01  5.387E-01  2.000E+01  2.000E+04 -2.347E+00
   1   18   30     3     9    1.2444E+06 -4.3453E+04   1.2878E+06  0.000E+00  0.000E+00  0.000E+00  3.09950E+01  5.505E-01  2.000E+01  2.000E+04 -2.173E+00



1
  VOLUMETRIC BUDGET FOR ENTIRE MODEL AT END OF TIME STEP  1 IN STRESS PERIOD   7
  ------------------------------------------------------------------------------

     CUMULATIVE VOLUMES      L**3       RATES FOR THIS TIME STEP      L**3/T
     ------------------                 ------------------------

           IN:                                      IN:
           ---                                      ---
             STORAGE =    20405072.7006               STORAGE =        2133.2033
       CONSTANT HEAD =   734664301.3718         CONSTANT HEAD =     1166512.4220
            RECHARGE =    15097200.0000              RECHARGE =           0.0000
      STREAM LEAKAGE =           0.0000        STREAM LEAKAGE =           0.0000
        MANAGED FLOW =           0.0000          MANAGED FLOW =           0.0000

            TOTAL IN =   770166574.0724              TOTAL IN =     1168645.6253

          OUT:                                     OUT:
          ----                                     ----
             STORAGE =      444212.9337               STORAGE =         433.5016
       CONSTANT HEAD =           0.0000         CONSTANT HEAD =           0.0000
            RECHARGE =           0.0000              RECHARGE =           0.0000
      STREAM LEAKAGE =   736303990.2567        STREAM LEAKAGE =     1137814.5501
        MANAGED FLOW =    33418460.3149          MANAGED FLOW =       30398.1265

           TOTAL OUT =   770166663.5054             TOTAL OUT =     1168646.1782

            IN - OUT =         -89.4330              IN - OUT =          -0.5528

 PERCENT DISCREPANCY =           0.00     PERCENT DISCREPANCY =           0.00






          TIME SUMMARY AT END OF TIME STEP   1 IN STRESS PERIOD    7
                    SECONDS     MINUTES      HOURS       DAYS        YEARS
                    -----------------------------------------------------------
   TIME STEP LENGTH 7.86240E+06 1.31040E+05  2184.0      91.000     0.24914    
 STRESS PERIOD TIME 7.86240E+06 1.31040E+05  2184.0      91.000     0.24914    
         TOTAL TIME 5.52096E+07 9.20160E+05  15336.      639.00      1.7495    
1
1
                            STRESS PERIOD NO.    8, LENGTH =   91.00000    
                            -----------------------------------------------

                              NUMBER OF TIME STEPS =     1

                               MULTIPLIER FOR DELT =     1.500

                            INITIAL TIME STEP SIZE =   91.00000    

                 RECHARGE =  1.000000E-03

 REUSING STREAM SEGMENT DATA FROM LAST STRESS PERIOD
 
 SOLVING FOR HEAD 


     5 CALLS TO PCG ROUTINE FOR TIME STEP   1 IN STRESS PERIOD    8
    17 TOTAL ITERATIONS

 HEAD/DRAWDOWN PRINTOUT FLAG = 1     TOTAL BUDGET PRINTOUT FLAG = 1
 CELL-BY-CELL FLOW TERM FLAG = 1

 OUTPUT FLAGS FOR ALL LAYERS ARE THE SAME:
   HEAD    DRAWDOWN  HEAD  DRAWDOWN
 PRINTOUT  PRINTOUT  SAVE    SAVE
 ----------------------------------
     0         0       0       0



 STREAM LISTING     PERIOD      8   STEP        1

 LAYER ROW COL. STREAM  RCH.  FLOW INTO     FLOW TO   FLOW OUT OF   OVRLND.     DIRECT     STREAM       STREAM     STREAM     STREAM   STREAMBED  STREAMBED
                SEG.NO.  NO.  STRM. RCH.    AQUIFER    STRM. RCH.    RUNOFF     PRECIP       ET          HEAD       DEPTH      WIDTH   CONDCTNC.   GRADIENT

   1   13    1     1     1    1.0000E+05 -2.7830E+04   1.2783E+05  0.000E+00  0.000E+00  0.000E+00  4.84178E+01  1.564E-01  2.000E+01  2.000E+04 -1.392E+00
   1   13    2     1     2    1.2783E+05 -3.7555E+04   1.6539E+05  0.000E+00  0.000E+00  0.000E+00  4.79661E+01  1.820E-01  2.000E+01  2.000E+04 -1.878E+00
   1   14    3     1     3    1.6539E+05 -3.3027E+04   1.9841E+05  0.000E+00  0.000E+00  0.000E+00  4.75139E+01  2.071E-01  2.000E+01  2.000E+04 -1.651E+00
   1   15    4     1     4    1.9841E+05 -3.2255E+04   2.3067E+05  0.000E+00  0.000E+00  0.000E+00  4.70582E+01  2.287E-01  2.000E+01  2.000E+04 -1.613E+00
   1   16    5     1     5    2.3067E+05 -3.3776E+04   2.6444E+05  0.000E+00  0.000E+00  0.000E+00  4.66015E+01  2.492E-01  2.000E+01  2.000E+04 -1.689E+00
   1   16    6     1     6    2.6444E+05 -2.9473E+04   2.9392E+05  0.000E+00  0.000E+00  0.000E+00  4.61428E+01  2.678E-01  2.000E+01  2.000E+04 -1.474E+00
   1   16    7     1     7    2.9392E+05 -2.9251E+04   3.2317E+05  0.000E+00  0.000E+00  0.000E+00  4.56821E+01  2.844E-01  2.000E+01  2.000E+04 -1.463E+00
   1   16    8     1     8    3.2317E+05 -2.9374E+04   3.5254E+05  0.000E+00  0.000E+00  0.000E+00  4.52208E+01  3.003E-01  2.000E+01  2.000E+04 -1.469E+00
   1   16    9     1     9    3.5254E+05 -2.9369E+04   3.8191E+05  0.000E+00  0.000E+00  0.000E+00  4.47589E+01  3.157E-01  2.000E+01  2.000E+04 -1.468E+00
   1   16   10     1    10    3.8191E+05 -2.9272E+04   4.1118E+05  0.000E+00  0.000E+00  0.000E+00  4.42965E+01  3.306E-01  2.000E+01  2.000E+04 -1.464E+00
   1   16   11     1    11    4.1118E+05 -2.9656E+04   4.4084E+05  0.000E+00  0.000E+00  0.000E+00  4.38338E+01  3.451E-01  2.000E+01  2.000E+04 -1.483E+00
   1   16   12     1    12    4.4084E+05 -3.4526E+04   4.7536E+05  0.000E+00  0.000E+00  0.000E+00  4.33719E+01  3.605E-01  2.000E+01  2.000E+04 -1.726E+00
   1   15   13     1    13    4.7536E+05 -3.2631E+04   5.0799E+05  0.000E+00  0.000E+00  0.000E+00  4.29102E+01  3.761E-01  2.000E+01  2.000E+04 -1.632E+00
   1   14   14     1    14    5.0799E+05 -3.2829E+04   5.4082E+05  0.000E+00  0.000E+00  0.000E+00  4.24478E+01  3.910E-01  2.000E+01  2.000E+04 -1.641E+00
   1   13   15     1    15    5.4082E+05 -3.5263E+04   5.7609E+05  0.000E+00  0.000E+00  0.000E+00  4.19855E+01  4.060E-01  2.000E+01  2.000E+04 -1.763E+00
   1   12   16     1    16    5.7609E+05 -4.2219E+04   6.1831E+05  0.000E+00  0.000E+00  0.000E+00  4.15249E+01  4.227E-01  2.000E+01  2.000E+04 -2.111E+00
   1   12   17     1    17    6.1831E+05 -3.2684E+04   6.5099E+05  0.000E+00  0.000E+00  0.000E+00  4.10634E+01  4.384E-01  2.000E+01  2.000E+04 -1.634E+00
   1   12   18     1    18    6.5099E+05 -3.1198E+04   6.8219E+05  0.000E+00  0.000E+00  0.000E+00  4.05992E+01  4.515E-01  2.000E+01  2.000E+04 -1.560E+00
   1   12   19     1    19    6.8219E+05 -3.5558E+04   7.1775E+05  0.000E+00  0.000E+00  0.000E+00  4.01354E+01  4.649E-01  2.000E+01  2.000E+04 -1.778E+00
   1   13   20     1    20    7.1775E+05 -2.5302E+04   7.4305E+05  0.000E+00  0.000E+00  0.000E+00  3.96701E+01  4.769E-01  2.000E+01  2.000E+04 -1.265E+00
   1   14   21     1    21    7.4305E+05 -1.8220E+04   7.6127E+05  0.000E+00  0.000E+00  0.000E+00  3.92013E+01  4.854E-01  2.000E+01  2.000E+04 -9.110E-01
   1   14   22     1    22    7.6127E+05 -1.3715E+03   7.6264E+05  0.000E+00  0.000E+00  0.000E+00  3.87278E+01  4.892E-01  2.000E+01  2.000E+04 -6.858E-02
   1    9   30     2     1    5.0000E+04 -2.6539E+04   7.6539E+04  0.000E+00  0.000E+00  0.000E+00  4.02584E+01  1.334E-01  2.000E+01  2.000E+04 -1.327E+00
   1    9   29     2     2    7.6539E+04 -2.9002E+04   1.0554E+05  0.000E+00  0.000E+00  0.000E+00  4.00410E+01  1.660E-01  2.000E+01  2.000E+04 -1.450E+00
   1    9   28     2     3    1.0554E+05 -3.3286E+04   1.3883E+05  0.000E+00  0.000E+00  0.000E+00  3.98231E+01  1.981E-01  2.000E+01  2.000E+04 -1.664E+00
   1    9   27     2     4    1.3883E+05 -4.7414E+04   1.8624E+05  0.000E+00  0.000E+00  0.000E+00  3.96100E+01  2.350E-01  2.000E+01  2.000E+04 -2.371E+00
   1   10   26     2     5    1.8624E+05 -3.3252E+04   2.1949E+05  0.000E+00  0.000E+00  0.000E+00  3.93935E+01  2.685E-01  2.000E+01  2.000E+04 -1.663E+00
   1   11   25     2     6    2.1949E+05 -2.4647E+04   2.4414E+05  0.000E+00  0.000E+00  0.000E+00  3.91658E+01  2.908E-01  2.000E+01  2.000E+04 -1.232E+00
   1   12   24     2     7    2.4414E+05 -1.7802E+04   2.6194E+05  0.000E+00  0.000E+00  0.000E+00  3.89315E+01  3.065E-01  2.000E+01  2.000E+04 -8.901E-01
   1   13   23     2     8    2.6194E+05 -1.2472E+04   2.7441E+05  0.000E+00  0.000E+00  0.000E+00  3.86924E+01  3.174E-01  2.000E+01  2.000E+04 -6.236E-01
   1   14   22     2     9    2.7441E+05 -6.9430E+03   2.8136E+05  0.000E+00  0.000E+00  0.000E+00  3.84493E+01  3.243E-01  2.000E+01  2.000E+04 -3.471E-01
   1   14   22     3     1    1.0440E+06 -1.4968E+04   1.0590E+06  0.000E+00  0.000E+00  0.000E+00  3.80480E+01  4.925E-01  2.000E+01  2.000E+04 -7.484E-01
   1   15   23     3     2    1.0590E+06 -2.2654E+04   1.0816E+06  0.000E+00  0.000E+00  0.000E+00  3.71644E+01  4.977E-01  2.000E+01  2.000E+04 -1.133E+00
   1   15   24     3     3    1.0816E+06 -1.8554E+04   1.1002E+06  0.000E+00  0.000E+00  0.000E+00  3.62812E+01  5.035E-01  2.000E+01  2.000E+04 -9.277E-01
   1   15   25     3     4    1.1002E+06 -1.7323E+04   1.1175E+06  0.000E+00  0.000E+00  0.000E+00  3.53973E+01  5.084E-01  2.000E+01  2.000E+04 -8.662E-01
   1   15   26     3     5    1.1175E+06 -2.0964E+04   1.1385E+06  0.000E+00  0.000E+00  0.000E+00  3.45137E+01  5.137E-01  2.000E+01  2.000E+04 -1.048E+00
   1   16   27     3     6    1.1385E+06 -2.8835E+04   1.1673E+06  0.000E+00  0.000E+00  0.000E+00  3.36316E+01  5.204E-01  2.000E+01  2.000E+04 -1.442E+00
   1   17   28     3     7    1.1673E+06 -3.6107E+04   1.2034E+06  0.000E+00  0.000E+00  0.000E+00  3.27514E+01  5.292E-01  2.000E+01  2.000E+04 -1.805E+00
   1   18   29     3     8    1.2034E+06 -4.7207E+04   1.2506E+06  0.000E+00  0.000E+00  0.000E+00  3.18736E+01  5.403E-01  2.000E+01  2.000E+04 -2.360E+00
   1   18   30     3     9    1.2506E+06 -4.3677E+04   1.2943E+06  0.000E+00  0.000E+00  0.000E+00  3.09966E+01  5.522E-01  2.000E+01  2.000E+04 -2.184E+00



1
  VOLUMETRIC BUDGET FOR ENTIRE MODEL AT END OF TIME STEP  1 IN STRESS PERIOD   8
  ------------------------------------------------------------------------------

     CUMULATIVE VOLUMES      L**3       RATES FOR THIS TIME STEP      L**3/T
     ------------------                 ------------------------

           IN:                                      IN:
           ---                                      ---
             STORAGE =    20408971.8346               STORAGE =          42.8476
       CONSTANT HEAD =   839865738.2185         CONSTANT HEAD =     1156059.7456
            RECHARGE =    17608800.0000              RECHARGE =       27600.0000
      STREAM LEAKAGE =           0.0000        STREAM LEAKAGE =           0.0000
        MANAGED FLOW =           0.0000          MANAGED FLOW =           0.0000

            TOTAL IN =   877883510.0532              TOTAL IN =     1183702.5932

          OUT:                                     OUT:
          ----                                     ----
             STORAGE =      546279.5075               STORAGE =        1121.6107
       CONSTANT HEAD =           0.0000         CONSTANT HEAD =           0.0000
            RECHARGE =           0.0000              RECHARGE =           0.0000
      STREAM LEAKAGE =   840433957.1893        STREAM LEAKAGE =     1144285.3509
        MANAGED FLOW =    36903331.3975          MANAGED FLOW =       38295.2866

           TOTAL OUT =   877883568.0943             TOTAL OUT =     1183702.2482

            IN - OUT =         -58.0411              IN - OUT =           0.3450

 PERCENT DISCREPANCY =           0.00     PERCENT DISCREPANCY =           0.00






          TIME SUMMARY AT END OF TIME STEP   1 IN STRESS PERIOD    8
                    SECONDS     MINUTES      HOURS       DAYS        YEARS
                    -----------------------------------------------------------
   TIME STEP LENGTH 7.86240E+06 1.31040E+05  2184.0      91.000     0.24914    
 STRESS PERIOD TIME 7.86240E+06 1.31040E+05  2184.0      91.000     0.24914    
         TOTAL TIME 6.30720E+07 1.05120E+06  17520.      730.00      1.9986    
1
1
                            STRESS PERIOD NO.    9, LENGTH =   92.00000    
                            -----------------------------------------------

                              NUMBER OF TIME STEPS =     1

                               MULTIPLIER FOR DELT =     1.500

                            INITIAL TIME STEP SIZE =   92.00000    

                 RECHARGE =  5.000000E-04

 REUSING STREAM SEGMENT DATA FROM LAST STRESS PERIOD
 
 SOLVING FOR HEAD 


     5 CALLS TO PCG ROUTINE FOR TIME STEP   1 IN STRESS PERIOD    9
    18 TOTAL ITERATIONS

 HEAD/DRAWDOWN PRINTOUT FLAG = 1     TOTAL BUDGET PRINTOUT FLAG = 1
 CELL-BY-CELL FLOW TERM FLAG = 1

 OUTPUT FLAGS FOR ALL LAYERS ARE THE SAME:
   HEAD    DRAWDOWN  HEAD  DRAWDOWN
 PRINTOUT  PRINTOUT  SAVE    SAVE
 ----------------------------------
     0         0       0       0



 STREAM LISTING     PERIOD      9   STEP        1

 LAYER ROW COL. STREAM  RCH.  FLOW INTO     FLOW TO   FLOW OUT OF   OVRLND.     DIRECT     STREAM       STREAM     STREAM     STREAM   STREAMBED  STREAMBED
                SEG.NO.  NO.  STRM. RCH.    AQUIFER    STRM. RCH.    RUNOFF     PRECIP       ET          HEAD       DEPTH      WIDTH   CONDCTNC.   GRADIENT

   1   13    1     1     1    1.0000E+05 -2.7616E+04   1.2762E+05  0.000E+00  0.000E+00  0.000E+00  4.84177E+01  1.563E-01  2.000E+01  2.000E+04 -1.381E+00
   1   13    2     1     2    1.2762E+05 -3.7297E+04   1.6491E+05  0.000E+00  0.000E+00  0.000E+00  4.79658E+01  1.817E-01  2.000E+01  2.000E+04 -1.865E+00
   1   14    3     1     3    1.6491E+05 -3.2767E+04   1.9768E+05  0.000E+00  0.000E+00  0.000E+00  4.75135E+01  2.067E-01  2.000E+01  2.000E+04 -1.638E+00
   1   15    4     1     4    1.9768E+05 -3.1995E+04   2.2967E+05  0.000E+00  0.000E+00  0.000E+00  4.70577E+01  2.281E-01  2.000E+01  2.000E+04 -1.600E+00
   1   16    5     1     5    2.2967E+05 -3.3521E+04   2.6320E+05  0.000E+00  0.000E+00  0.000E+00  4.66008E+01  2.485E-01  2.000E+01  2.000E+04 -1.676E+00
   1   16    6     1     6    2.6320E+05 -2.9236E+04   2.9243E+05  0.000E+00  0.000E+00  0.000E+00  4.61420E+01  2.670E-01  2.000E+01  2.000E+04 -1.462E+00
   1   16    7     1     7    2.9243E+05 -2.8993E+04   3.2142E+05  0.000E+00  0.000E+00  0.000E+00  4.56812E+01  2.835E-01  2.000E+01  2.000E+04 -1.450E+00
   1   16    8     1     8    3.2142E+05 -2.9079E+04   3.5050E+05  0.000E+00  0.000E+00  0.000E+00  4.52197E+01  2.993E-01  2.000E+01  2.000E+04 -1.454E+00
   1   16    9     1     9    3.5050E+05 -2.9016E+04   3.7952E+05  0.000E+00  0.000E+00  0.000E+00  4.47577E+01  3.146E-01  2.000E+01  2.000E+04 -1.451E+00
   1   16   10     1    10    3.7952E+05 -2.8821E+04   4.0834E+05  0.000E+00  0.000E+00  0.000E+00  4.42952E+01  3.293E-01  2.000E+01  2.000E+04 -1.441E+00
   1   16   11     1    11    4.0834E+05 -2.8999E+04   4.3734E+05  0.000E+00  0.000E+00  0.000E+00  4.38322E+01  3.436E-01  2.000E+01  2.000E+04 -1.450E+00
   1   16   12     1    12    4.3734E+05 -3.3226E+04   4.7056E+05  0.000E+00  0.000E+00  0.000E+00  4.33699E+01  3.585E-01  2.000E+01  2.000E+04 -1.661E+00
   1   15   13     1    13    4.7056E+05 -3.0851E+04   5.0142E+05  0.000E+00  0.000E+00  0.000E+00  4.29076E+01  3.735E-01  2.000E+01  2.000E+04 -1.543E+00
   1   14   14     1    14    5.0142E+05 -3.0717E+04   5.3213E+05  0.000E+00  0.000E+00  0.000E+00  4.24443E+01  3.875E-01  2.000E+01  2.000E+04 -1.536E+00
   1   13   15     1    15    5.3213E+05 -3.3290E+04   5.6542E+05  0.000E+00  0.000E+00  0.000E+00  4.19813E+01  4.018E-01  2.000E+01  2.000E+04 -1.665E+00
   1   12   16     1    16    5.6542E+05 -4.0980E+04   6.0640E+05  0.000E+00  0.000E+00  0.000E+00  4.15201E+01  4.179E-01  2.000E+01  2.000E+04 -2.049E+00
   1   12   17     1    17    6.0640E+05 -3.1358E+04   6.3776E+05  0.000E+00  0.000E+00  0.000E+00  4.10581E+01  4.331E-01  2.000E+01  2.000E+04 -1.568E+00
   1   12   18     1    18    6.3776E+05 -2.9973E+04   6.6773E+05  0.000E+00  0.000E+00  0.000E+00  4.05936E+01  4.458E-01  2.000E+01  2.000E+04 -1.499E+00
   1   12   19     1    19    6.6773E+05 -3.4559E+04   7.0229E+05  0.000E+00  0.000E+00  0.000E+00  4.01294E+01  4.589E-01  2.000E+01  2.000E+04 -1.728E+00
   1   13   20     1    20    7.0229E+05 -2.3855E+04   7.2615E+05  0.000E+00  0.000E+00  0.000E+00  3.96638E+01  4.706E-01  2.000E+01  2.000E+04 -1.193E+00
   1   14   21     1    21    7.2615E+05 -1.6833E+04   7.4298E+05  0.000E+00  0.000E+00  0.000E+00  3.91945E+01  4.786E-01  2.000E+01  2.000E+04 -8.416E-01
   1   14   22     1    22    7.4298E+05 -1.2124E+03   7.4419E+05  0.000E+00  0.000E+00  0.000E+00  3.87207E+01  4.821E-01  2.000E+01  2.000E+04 -6.062E-02
   1    9   30     2     1    5.0000E+04 -2.6468E+04   7.6468E+04  0.000E+00  0.000E+00  0.000E+00  4.02584E+01  1.334E-01  2.000E+01  2.000E+04 -1.323E+00
   1    9   29     2     2    7.6468E+04 -2.8934E+04   1.0540E+05  0.000E+00  0.000E+00  0.000E+00  4.00409E+01  1.659E-01  2.000E+01  2.000E+04 -1.447E+00
   1    9   28     2     3    1.0540E+05 -3.3218E+04   1.3862E+05  0.000E+00  0.000E+00  0.000E+00  3.98229E+01  1.979E-01  2.000E+01  2.000E+04 -1.661E+00
   1    9   27     2     4    1.3862E+05 -4.7317E+04   1.8594E+05  0.000E+00  0.000E+00  0.000E+00  3.96098E+01  2.348E-01  2.000E+01  2.000E+04 -2.366E+00
   1   10   26     2     5    1.8594E+05 -3.3265E+04   2.1920E+05  0.000E+00  0.000E+00  0.000E+00  3.93932E+01  2.682E-01  2.000E+01  2.000E+04 -1.663E+00
   1   11   25     2     6    2.1920E+05 -2.4888E+04   2.4409E+05  0.000E+00  0.000E+00  0.000E+00  3.91657E+01  2.907E-01  2.000E+01  2.000E+04 -1.244E+00
   1   12   24     2     7    2.4409E+05 -1.8261E+04   2.6235E+05  0.000E+00  0.000E+00  0.000E+00  3.89317E+01  3.067E-01  2.000E+01  2.000E+04 -9.130E-01
   1   13   23     2     8    2.6235E+05 -1.2761E+04   2.7511E+05  0.000E+00  0.000E+00  0.000E+00  3.86928E+01  3.178E-01  2.000E+01  2.000E+04 -6.381E-01
   1   14   22     2     9    2.7511E+05 -6.6340E+03   2.8175E+05  0.000E+00  0.000E+00  0.000E+00  3.84496E+01  3.246E-01  2.000E+01  2.000E+04 -3.317E-01
   1   14   22     3     1    1.0259E+06 -1.4769E+04   1.0407E+06  0.000E+00  0.000E+00  0.000E+00  3.80429E+01  4.874E-01  2.000E+01  2.000E+04 -7.384E-01
   1   15   23     3     2    1.0407E+06 -2.2211E+04   1.0629E+06  0.000E+00  0.000E+00  0.000E+00  3.71592E+01  4.926E-01  2.000E+01  2.000E+04 -1.111E+00
   1   15   24     3     3    1.0629E+06 -1.9021E+04   1.0819E+06  0.000E+00  0.000E+00  0.000E+00  3.62761E+01  4.983E-01  2.000E+01  2.000E+04 -9.511E-01
   1   15   25     3     4    1.0819E+06 -1.8891E+04   1.1008E+06  0.000E+00  0.000E+00  0.000E+00  3.53925E+01  5.036E-01  2.000E+01  2.000E+04 -9.446E-01
   1   15   26     3     5    1.1008E+06 -2.1781E+04   1.1226E+06  0.000E+00  0.000E+00  0.000E+00  3.45092E+01  5.092E-01  2.000E+01  2.000E+04 -1.089E+00
   1   16   27     3     6    1.1226E+06 -2.8866E+04   1.1515E+06  0.000E+00  0.000E+00  0.000E+00  3.36273E+01  5.161E-01  2.000E+01  2.000E+04 -1.443E+00
   1   17   28     3     7    1.1515E+06 -3.5964E+04   1.1874E+06  0.000E+00  0.000E+00  0.000E+00  3.27471E+01  5.249E-01  2.000E+01  2.000E+04 -1.798E+00
   1   18   29     3     8    1.1874E+06 -4.7014E+04   1.2345E+06  0.000E+00  0.000E+00  0.000E+00  3.18693E+01  5.360E-01  2.000E+01  2.000E+04 -2.351E+00
   1   18   30     3     9    1.2345E+06 -4.3544E+04   1.2780E+06  0.000E+00  0.000E+00  0.000E+00  3.09924E+01  5.480E-01  2.000E+01  2.000E+04 -2.177E+00



1
  VOLUMETRIC BUDGET FOR ENTIRE MODEL AT END OF TIME STEP  1 IN STRESS PERIOD   9
  ------------------------------------------------------------------------------

     CUMULATIVE VOLUMES      L**3       RATES FOR THIS TIME STEP      L**3/T
     ------------------                 ------------------------

           IN:                                      IN:
           ---                                      ---
             STORAGE =    20570494.0120               STORAGE =        1755.6758
       CONSTANT HEAD =   947136098.4482         CONSTANT HEAD =     1165982.1764
            RECHARGE =    18878400.0000              RECHARGE =       13800.0000
      STREAM LEAKAGE =           0.0000        STREAM LEAKAGE =           0.0000
        MANAGED FLOW =           0.0000          MANAGED FLOW =           0.0000

            TOTAL IN =   986584992.4602              TOTAL IN =     1181537.8523

          OUT:                                     OUT:
          ----                                     ----
             STORAGE =      551223.8558               STORAGE =          53.7429
       CONSTANT HEAD =           0.0000         CONSTANT HEAD =           0.0000
            RECHARGE =           0.0000              RECHARGE =           0.0000
      STREAM LEAKAGE =   944209958.9211        STREAM LEAKAGE =     1128000.0188
        MANAGED FLOW =    41823896.7275          MANAGED FLOW =       53484.4058

           TOTAL OUT =   986585079.5044             TOTAL OUT =     1181538.1675

            IN - OUT =         -87.0441              IN - OUT =          -0.3153

 PERCENT DISCREPANCY =           0.00     PERCENT DISCREPANCY =           0.00






          TIME SUMMARY AT END OF TIME STEP   1 IN STRESS PERIOD    9
                    SECONDS     MINUTES      HOURS       DAYS        YEARS
                    -----------------------------------------------------------
   TIME STEP LENGTH 7.94880E+06 1.32480E+05  2208.0      92.000     0.25188    
 STRESS PERIOD TIME 7.94880E+06 1.32480E+05  2208.0      92.000     0.25188    
         TOTAL TIME 7.10208E+07 1.18368E+06  19728.      822.00      2.2505    
1
1
                            STRESS PERIOD NO.   10, LENGTH =   91.00000    
                            -----------------------------------------------

                              NUMBER OF TIME STEPS =     1

                               MULTIPLIER FOR DELT =     1.500

                            INITIAL TIME STEP SIZE =   91.00000    

                 RECHARGE =  2.000000E-03

 REUSING STREAM SEGMENT DATA FROM LAST STRESS PERIOD
 
 SOLVING FOR HEAD 


     5 CALLS TO PCG ROUTINE FOR TIME STEP   1 IN STRESS PERIOD   10
    18 TOTAL ITERATIONS

 HEAD/DRAWDOWN PRINTOUT FLAG = 1     TOTAL BUDGET PRINTOUT FLAG = 1
 CELL-BY-CELL FLOW TERM FLAG = 1

 OUTPUT FLAGS FOR ALL LAYERS ARE THE SAME:
   HEAD    DRAWDOWN  HEAD  DRAWDOWN
 PRINTOUT  PRINTOUT  SAVE    SAVE
 ----------------------------------
     0         0       0       0



 STREAM LISTING     PERIOD     10   STEP        1

 LAYER ROW COL. STREAM  RCH.  FLOW INTO     FLOW TO   FLOW OUT OF   OVRLND.     DIRECT     STREAM       STREAM     STREAM     STREAM   STREAMBED  STREAMBED
                SEG.NO.  NO.  STRM. RCH.    AQUIFER    STRM. RCH.    RUNOFF     PRECIP       ET          HEAD       DEPTH      WIDTH   CONDCTNC.   GRADIENT

   1   13    1     1     1    1.0000E+05 -2.8280E+04   1.2828E+05  0.000E+00  0.000E+00  0.000E+00  4.84180E+01  1.566E-01  2.000E+01  2.000E+04 -1.414E+00
   1   13    2     1     2    1.2828E+05 -3.8092E+04   1.6637E+05  0.000E+00  0.000E+00  0.000E+00  4.79666E+01  1.825E-01  2.000E+01  2.000E+04 -1.905E+00
   1   14    3     1     3    1.6637E+05 -3.3550E+04   1.9992E+05  0.000E+00  0.000E+00  0.000E+00  4.75148E+01  2.080E-01  2.000E+01  2.000E+04 -1.677E+00
   1   15    4     1     4    1.9992E+05 -3.2755E+04   2.3268E+05  0.000E+00  0.000E+00  0.000E+00  4.70593E+01  2.298E-01  2.000E+01  2.000E+04 -1.638E+00
   1   16    5     1     5    2.3268E+05 -3.4223E+04   2.6690E+05  0.000E+00  0.000E+00  0.000E+00  4.66028E+01  2.505E-01  2.000E+01  2.000E+04 -1.711E+00
   1   16    6     1     6    2.6690E+05 -2.9860E+04   2.9676E+05  0.000E+00  0.000E+00  0.000E+00  4.61444E+01  2.694E-01  2.000E+01  2.000E+04 -1.493E+00
   1   16    7     1     7    2.9676E+05 -2.9632E+04   3.2639E+05  0.000E+00  0.000E+00  0.000E+00  4.56838E+01  2.861E-01  2.000E+01  2.000E+04 -1.482E+00
   1   16    8     1     8    3.2639E+05 -2.9752E+04   3.5615E+05  0.000E+00  0.000E+00  0.000E+00  4.52226E+01  3.021E-01  2.000E+01  2.000E+04 -1.488E+00
   1   16    9     1     9    3.5615E+05 -2.9740E+04   3.8589E+05  0.000E+00  0.000E+00  0.000E+00  4.47608E+01  3.177E-01  2.000E+01  2.000E+04 -1.487E+00
   1   16   10     1    10    3.8589E+05 -2.9632E+04   4.1552E+05  0.000E+00  0.000E+00  0.000E+00  4.42986E+01  3.327E-01  2.000E+01  2.000E+04 -1.482E+00
   1   16   11     1    11    4.1552E+05 -3.0003E+04   4.4552E+05  0.000E+00  0.000E+00  0.000E+00  4.38359E+01  3.473E-01  2.000E+01  2.000E+04 -1.500E+00
   1   16   12     1    12    4.4552E+05 -3.4887E+04   4.8041E+05  0.000E+00  0.000E+00  0.000E+00  4.33742E+01  3.628E-01  2.000E+01  2.000E+04 -1.744E+00
   1   15   13     1    13    4.8041E+05 -3.3015E+04   5.1342E+05  0.000E+00  0.000E+00  0.000E+00  4.29126E+01  3.785E-01  2.000E+01  2.000E+04 -1.651E+00
   1   14   14     1    14    5.1342E+05 -3.3211E+04   5.4663E+05  0.000E+00  0.000E+00  0.000E+00  4.24503E+01  3.935E-01  2.000E+01  2.000E+04 -1.661E+00
   1   13   15     1    15    5.4663E+05 -3.5649E+04   5.8228E+05  0.000E+00  0.000E+00  0.000E+00  4.19881E+01  4.086E-01  2.000E+01  2.000E+04 -1.782E+00
   1   12   16     1    16    5.8228E+05 -4.2627E+04   6.2491E+05  0.000E+00  0.000E+00  0.000E+00  4.15276E+01  4.254E-01  2.000E+01  2.000E+04 -2.131E+00
   1   12   17     1    17    6.2491E+05 -3.2975E+04   6.5788E+05  0.000E+00  0.000E+00  0.000E+00  4.10662E+01  4.412E-01  2.000E+01  2.000E+04 -1.649E+00
   1   12   18     1    18    6.5788E+05 -3.1449E+04   6.8933E+05  0.000E+00  0.000E+00  0.000E+00  4.06021E+01  4.543E-01  2.000E+01  2.000E+04 -1.572E+00
   1   12   19     1    19    6.8933E+05 -3.5786E+04   7.2512E+05  0.000E+00  0.000E+00  0.000E+00  4.01383E+01  4.678E-01  2.000E+01  2.000E+04 -1.789E+00
   1   13   20     1    20    7.2512E+05 -2.5380E+04   7.5050E+05  0.000E+00  0.000E+00  0.000E+00  3.96730E+01  4.798E-01  2.000E+01  2.000E+04 -1.269E+00
   1   14   21     1    21    7.5050E+05 -1.8144E+04   7.6864E+05  0.000E+00  0.000E+00  0.000E+00  3.92042E+01  4.883E-01  2.000E+01  2.000E+04 -9.072E-01
   1   14   22     1    22    7.6864E+05 -7.9479E+02   7.6944E+05  0.000E+00  0.000E+00  0.000E+00  3.87306E+01  4.919E-01  2.000E+01  2.000E+04 -3.974E-02
   1    9   30     2     1    5.0000E+04 -2.6424E+04   7.6424E+04  0.000E+00  0.000E+00  0.000E+00  4.02584E+01  1.334E-01  2.000E+01  2.000E+04 -1.321E+00
   1    9   29     2     2    7.6424E+04 -2.8867E+04   1.0529E+05  0.000E+00  0.000E+00  0.000E+00  4.00408E+01  1.658E-01  2.000E+01  2.000E+04 -1.443E+00
   1    9   28     2     3    1.0529E+05 -3.3128E+04   1.3842E+05  0.000E+00  0.000E+00  0.000E+00  3.98227E+01  1.977E-01  2.000E+01  2.000E+04 -1.656E+00
   1    9   27     2     4    1.3842E+05 -4.7278E+04   1.8570E+05  0.000E+00  0.000E+00  0.000E+00  3.96096E+01  2.346E-01  2.000E+01  2.000E+04 -2.364E+00
   1   10   26     2     5    1.8570E+05 -3.2462E+04   2.1816E+05  0.000E+00  0.000E+00  0.000E+00  3.93927E+01  2.677E-01  2.000E+01  2.000E+04 -1.623E+00
   1   11   25     2     6    2.1816E+05 -2.2615E+04   2.4077E+05  0.000E+00  0.000E+00  0.000E+00  3.91641E+01  2.891E-01  2.000E+01  2.000E+04 -1.131E+00
   1   12   24     2     7    2.4077E+05 -1.4530E+04   2.5530E+05  0.000E+00  0.000E+00  0.000E+00  3.89279E+01  3.029E-01  2.000E+01  2.000E+04 -7.265E-01
   1   13   23     2     8    2.5530E+05 -9.7439E+03   2.6505E+05  0.000E+00  0.000E+00  0.000E+00  3.86867E+01  3.117E-01  2.000E+01  2.000E+04 -4.872E-01
   1   14   22     2     9    2.6505E+05 -6.5555E+03   2.7160E+05  0.000E+00  0.000E+00  0.000E+00  3.84425E+01  3.175E-01  2.000E+01  2.000E+04 -3.278E-01
   1   14   22     3     1    1.0410E+06 -1.4463E+04   1.0555E+06  0.000E+00  0.000E+00  0.000E+00  3.80471E+01  4.916E-01  2.000E+01  2.000E+04 -7.232E-01
   1   15   23     3     2    1.0555E+06 -2.1088E+04   1.0766E+06  0.000E+00  0.000E+00  0.000E+00  3.71632E+01  4.966E-01  2.000E+01  2.000E+04 -1.054E+00
   1   15   24     3     3    1.0766E+06 -1.4243E+04   1.0908E+06  0.000E+00  0.000E+00  0.000E+00  3.62793E+01  5.015E-01  2.000E+01  2.000E+04 -7.122E-01
   1   15   25     3     4    1.0908E+06 -8.0637E+03   1.0989E+06  0.000E+00  0.000E+00  0.000E+00  3.53935E+01  5.046E-01  2.000E+01  2.000E+04 -4.032E-01
   1   15   26     3     5    1.0989E+06 -1.5800E+04   1.1147E+06  0.000E+00  0.000E+00  0.000E+00  3.45079E+01  5.079E-01  2.000E+01  2.000E+04 -7.900E-01
   1   16   27     3     6    1.1147E+06 -2.7407E+04   1.1421E+06  0.000E+00  0.000E+00  0.000E+00  3.36249E+01  5.138E-01  2.000E+01  2.000E+04 -1.370E+00
   1   17   28     3     7    1.1421E+06 -3.5654E+04   1.1778E+06  0.000E+00  0.000E+00  0.000E+00  3.27446E+01  5.223E-01  2.000E+01  2.000E+04 -1.783E+00
   1   18   29     3     8    1.1778E+06 -4.7167E+04   1.2249E+06  0.000E+00  0.000E+00  0.000E+00  3.18668E+01  5.335E-01  2.000E+01  2.000E+04 -2.358E+00
   1   18   30     3     9    1.2249E+06 -4.3629E+04   1.2686E+06  0.000E+00  0.000E+00  0.000E+00  3.09899E+01  5.455E-01  2.000E+01  2.000E+04 -2.181E+00



1
  VOLUMETRIC BUDGET FOR ENTIRE MODEL AT END OF TIME STEP  1 IN STRESS PERIOD  10
  ------------------------------------------------------------------------------

     CUMULATIVE VOLUMES      L**3       RATES FOR THIS TIME STEP      L**3/T
     ------------------                 ------------------------

           IN:                                      IN:
           ---                                      ---
             STORAGE =    20611268.4821               STORAGE =         448.0711
       CONSTANT HEAD =  1051394438.9589         CONSTANT HEAD =     1145696.0496
            RECHARGE =    23901600.0000              RECHARGE =       55200.0000
      STREAM LEAKAGE =           0.0000        STREAM LEAKAGE =           0.0000
        MANAGED FLOW =           0.0000          MANAGED FLOW =           0.0000

            TOTAL IN =  1095907307.4409              TOTAL IN =     1201344.1207

          OUT:                                     OUT:
          ----                                     ----
             STORAGE =      805080.6345               STORAGE =        2789.6349
       CONSTANT HEAD =           0.0000         CONSTANT HEAD =           0.0000
            RECHARGE =           0.0000              RECHARGE =           0.0000
      STREAM LEAKAGE =  1045998363.5366        STREAM LEAKAGE =     1118553.8969
        MANAGED FLOW =    49103896.5054          MANAGED FLOW =       79999.9976

           TOTAL OUT =  1095907340.6764             TOTAL OUT =     1201343.5294

            IN - OUT =         -33.2355              IN - OUT =           0.5913

 PERCENT DISCREPANCY =           0.00     PERCENT DISCREPANCY =           0.00






          TIME SUMMARY AT END OF TIME STEP   1 IN STRESS PERIOD   10
                    SECONDS     MINUTES      HOURS       DAYS        YEARS
                    -----------------------------------------------------------
   TIME STEP LENGTH 7.86240E+06 1.31040E+05  2184.0      91.000     0.24914    
 STRESS PERIOD TIME 7.86240E+06 1.31040E+05  2184.0      91.000     0.24914    
         TOTAL TIME 7.88832E+07 1.31472E+06  21912.      913.00      2.4997    
1
1
                            STRESS PERIOD NO.   11, LENGTH =   91.00000    
                            -----------------------------------------------

                              NUMBER OF TIME STEPS =     1

                               MULTIPLIER FOR DELT =     1.500

                            INITIAL TIME STEP SIZE =   91.00000    

                 RECHARGE =   0.00000    

 REUSING STREAM SEGMENT DATA FROM LAST STRESS PERIOD
 
 SOLVING FOR HEAD 


     5 CALLS TO PCG ROUTINE FOR TIME STEP   1 IN STRESS PERIOD   11
    18 TOTAL ITERATIONS

 HEAD/DRAWDOWN PRINTOUT FLAG = 1     TOTAL BUDGET PRINTOUT FLAG = 1
 CELL-BY-CELL FLOW TERM FLAG = 1

 OUTPUT FLAGS FOR ALL LAYERS ARE THE SAME:
   HEAD    DRAWDOWN  HEAD  DRAWDOWN
 PRINTOUT  PRINTOUT  SAVE    SAVE
 ----------------------------------
     0         0       0       0



 STREAM LISTING     PERIOD     11   STEP        1

 LAYER ROW COL. STREAM  RCH.  FLOW INTO     FLOW TO   FLOW OUT OF   OVRLND.     DIRECT     STREAM       STREAM     STREAM     STREAM   STREAMBED  STREAMBED
                SEG.NO.  NO.  STRM. RCH.    AQUIFER    STRM. RCH.    RUNOFF     PRECIP       ET          HEAD       DEPTH      WIDTH   CONDCTNC.   GRADIENT

   1   13    1     1     1    1.0000E+05 -2.7437E+04   1.2744E+05  0.000E+00  0.000E+00  0.000E+00  4.84176E+01  1.563E-01  2.000E+01  2.000E+04 -1.372E+00
   1   13    2     1     2    1.2744E+05 -3.7087E+04   1.6452E+05  0.000E+00  0.000E+00  0.000E+00  4.79656E+01  1.815E-01  2.000E+01  2.000E+04 -1.854E+00
   1   14    3     1     3    1.6452E+05 -3.2565E+04   1.9709E+05  0.000E+00  0.000E+00  0.000E+00  4.75132E+01  2.064E-01  2.000E+01  2.000E+04 -1.628E+00
   1   15    4     1     4    1.9709E+05 -3.1808E+04   2.2890E+05  0.000E+00  0.000E+00  0.000E+00  4.70572E+01  2.277E-01  2.000E+01  2.000E+04 -1.590E+00
   1   16    5     1     5    2.2890E+05 -3.3369E+04   2.6227E+05  0.000E+00  0.000E+00  0.000E+00  4.66003E+01  2.480E-01  2.000E+01  2.000E+04 -1.668E+00
   1   16    6     1     6    2.6227E+05 -2.9120E+04   2.9139E+05  0.000E+00  0.000E+00  0.000E+00  4.61415E+01  2.665E-01  2.000E+01  2.000E+04 -1.456E+00
   1   16    7     1     7    2.9139E+05 -2.8902E+04   3.2029E+05  0.000E+00  0.000E+00  0.000E+00  4.56806E+01  2.829E-01  2.000E+01  2.000E+04 -1.445E+00
   1   16    8     1     8    3.2029E+05 -2.9023E+04   3.4931E+05  0.000E+00  0.000E+00  0.000E+00  4.52191E+01  2.987E-01  2.000E+01  2.000E+04 -1.451E+00
   1   16    9     1     9    3.4931E+05 -2.9018E+04   3.7833E+05  0.000E+00  0.000E+00  0.000E+00  4.47571E+01  3.139E-01  2.000E+01  2.000E+04 -1.451E+00
   1   16   10     1    10    3.7833E+05 -2.8921E+04   4.0725E+05  0.000E+00  0.000E+00  0.000E+00  4.42946E+01  3.287E-01  2.000E+01  2.000E+04 -1.446E+00
   1   16   11     1    11    4.0725E+05 -2.9298E+04   4.3655E+05  0.000E+00  0.000E+00  0.000E+00  4.38318E+01  3.431E-01  2.000E+01  2.000E+04 -1.465E+00
   1   16   12     1    12    4.3655E+05 -3.4104E+04   4.7065E+05  0.000E+00  0.000E+00  0.000E+00  4.33697E+01  3.584E-01  2.000E+01  2.000E+04 -1.705E+00
   1   15   13     1    13    4.7065E+05 -3.2166E+04   5.0282E+05  0.000E+00  0.000E+00  0.000E+00  4.29079E+01  3.739E-01  2.000E+01  2.000E+04 -1.608E+00
   1   14   14     1    14    5.0282E+05 -3.2348E+04   5.3517E+05  0.000E+00  0.000E+00  0.000E+00  4.24453E+01  3.885E-01  2.000E+01  2.000E+04 -1.617E+00
   1   13   15     1    15    5.3517E+05 -3.4789E+04   5.6996E+05  0.000E+00  0.000E+00  0.000E+00  4.19830E+01  4.034E-01  2.000E+01  2.000E+04 -1.739E+00
   1   12   16     1    16    5.6996E+05 -4.1769E+04   6.1172E+05  0.000E+00  0.000E+00  0.000E+00  4.15222E+01  4.200E-01  2.000E+01  2.000E+04 -2.088E+00
   1   12   17     1    17    6.1172E+05 -3.2319E+04   6.4404E+05  0.000E+00  0.000E+00  0.000E+00  4.10606E+01  4.356E-01  2.000E+01  2.000E+04 -1.616E+00
   1   12   18     1    18    6.4404E+05 -3.0852E+04   6.7489E+05  0.000E+00  0.000E+00  0.000E+00  4.05963E+01  4.486E-01  2.000E+01  2.000E+04 -1.543E+00
   1   12   19     1    19    6.7489E+05 -3.5192E+04   7.1009E+05  0.000E+00  0.000E+00  0.000E+00  4.01324E+01  4.619E-01  2.000E+01  2.000E+04 -1.760E+00
   1   13   20     1    20    7.1009E+05 -2.4969E+04   7.3506E+05  0.000E+00  0.000E+00  0.000E+00  3.96670E+01  4.739E-01  2.000E+01  2.000E+04 -1.248E+00
   1   14   21     1    21    7.3506E+05 -1.7954E+04   7.5301E+05  0.000E+00  0.000E+00  0.000E+00  3.91982E+01  4.823E-01  2.000E+01  2.000E+04 -8.977E-01
   1   14   22     1    22    7.5301E+05 -1.3830E+03   7.5439E+05  0.000E+00  0.000E+00  0.000E+00  3.87246E+01  4.860E-01  2.000E+01  2.000E+04 -6.915E-02
   1    9   30     2     1    5.0000E+04 -2.6320E+04   7.6320E+04  0.000E+00  0.000E+00  0.000E+00  4.02583E+01  1.333E-01  2.000E+01  2.000E+04 -1.316E+00
   1    9   29     2     2    7.6320E+04 -2.8787E+04   1.0511E+05  0.000E+00  0.000E+00  0.000E+00  4.00406E+01  1.656E-01  2.000E+01  2.000E+04 -1.439E+00
   1    9   28     2     3    1.0511E+05 -3.3069E+04   1.3818E+05  0.000E+00  0.000E+00  0.000E+00  3.98225E+01  1.975E-01  2.000E+01  2.000E+04 -1.653E+00
   1    9   27     2     4    1.3818E+05 -4.7143E+04   1.8532E+05  0.000E+00  0.000E+00  0.000E+00  3.96094E+01  2.344E-01  2.000E+01  2.000E+04 -2.357E+00
   1   10   26     2     5    1.8532E+05 -3.3085E+04   2.1840E+05  0.000E+00  0.000E+00  0.000E+00  3.93927E+01  2.677E-01  2.000E+01  2.000E+04 -1.654E+00
   1   11   25     2     6    2.1840E+05 -2.4723E+04   2.4313E+05  0.000E+00  0.000E+00  0.000E+00  3.91651E+01  2.901E-01  2.000E+01  2.000E+04 -1.236E+00
   1   12   24     2     7    2.4313E+05 -1.8146E+04   2.6127E+05  0.000E+00  0.000E+00  0.000E+00  3.89309E+01  3.059E-01  2.000E+01  2.000E+04 -9.073E-01
   1   13   23     2     8    2.6127E+05 -1.2766E+04   2.7404E+05  0.000E+00  0.000E+00  0.000E+00  3.86920E+01  3.170E-01  2.000E+01  2.000E+04 -6.383E-01
   1   14   22     2     9    2.7404E+05 -6.8963E+03   2.8094E+05  0.000E+00  0.000E+00  0.000E+00  3.84490E+01  3.240E-01  2.000E+01  2.000E+04 -3.448E-01
   1   14   22     3     1    1.0353E+06 -1.4964E+04   1.0503E+06  0.000E+00  0.000E+00  0.000E+00  3.80456E+01  4.900E-01  2.000E+01  2.000E+04 -7.482E-01
   1   15   23     3     2    1.0503E+06 -2.2694E+04   1.0730E+06  0.000E+00  0.000E+00  0.000E+00  3.71620E+01  4.953E-01  2.000E+01  2.000E+04 -1.135E+00
   1   15   24     3     3    1.0730E+06 -1.9164E+04   1.0922E+06  0.000E+00  0.000E+00  0.000E+00  3.62789E+01  5.012E-01  2.000E+01  2.000E+04 -9.582E-01
   1   15   25     3     4    1.0922E+06 -1.8893E+04   1.1110E+06  0.000E+00  0.000E+00  0.000E+00  3.53953E+01  5.064E-01  2.000E+01  2.000E+04 -9.446E-01
   1   15   26     3     5    1.1110E+06 -2.1692E+04   1.1327E+06  0.000E+00  0.000E+00  0.000E+00  3.45120E+01  5.120E-01  2.000E+01  2.000E+04 -1.085E+00
   1   16   27     3     6    1.1327E+06 -2.8801E+04   1.1615E+06  0.000E+00  0.000E+00  0.000E+00  3.36300E+01  5.189E-01  2.000E+01  2.000E+04 -1.440E+00
   1   17   28     3     7    1.1615E+06 -3.5889E+04   1.1974E+06  0.000E+00  0.000E+00  0.000E+00  3.27498E+01  5.276E-01  2.000E+01  2.000E+04 -1.794E+00
   1   18   29     3     8    1.1974E+06 -4.6937E+04   1.2444E+06  0.000E+00  0.000E+00  0.000E+00  3.18720E+01  5.387E-01  2.000E+01  2.000E+04 -2.347E+00
   1   18   30     3     9    1.2444E+06 -4.3453E+04   1.2878E+06  0.000E+00  0.000E+00  0.000E+00  3.09950E+01  5.505E-01  2.000E+01  2.000E+04 -2.173E+00



1
  VOLUMETRIC BUDGET FOR ENTIRE MODEL AT END OF TIME STEP  1 IN STRESS PERIOD  11
  ------------------------------------------------------------------------------

     CUMULATIVE VOLUMES      L**3       RATES FOR THIS TIME STEP      L**3/T
     ------------------                 ------------------------

           IN:                                      IN:
           ---                                      ---
             STORAGE =    20805389.1192               STORAGE =        2133.1938
       CONSTANT HEAD =  1157547069.7784         CONSTANT HEAD =     1166512.4266
            RECHARGE =    23901600.0000              RECHARGE =           0.0000
      STREAM LEAKAGE =           0.0000        STREAM LEAKAGE =           0.0000
        MANAGED FLOW =           0.0000          MANAGED FLOW =           0.0000

            TOTAL IN =  1202254058.8977              TOTAL IN =     1168645.6204

          OUT:                                     OUT:
          ----                                     ----
             STORAGE =      844529.2875               STORAGE =         433.5017
       CONSTANT HEAD =           0.0000         CONSTANT HEAD =           0.0000
            RECHARGE =           0.0000              RECHARGE =           0.0000
      STREAM LEAKAGE =  1149539487.1402        STREAM LEAKAGE =     1137814.5451
        MANAGED FLOW =    51870126.0137          MANAGED FLOW =       30398.1265

           TOTAL OUT =  1202254142.4413             TOTAL OUT =     1168646.1732

            IN - OUT =         -83.5437              IN - OUT =          -0.5528

 PERCENT DISCREPANCY =           0.00     PERCENT DISCREPANCY =           0.00






          TIME SUMMARY AT END OF TIME STEP   1 IN STRESS PERIOD   11
                    SECONDS     MINUTES      HOURS       DAYS        YEARS
                    -----------------------------------------------------------
   TIME STEP LENGTH 7.86240E+06 1.31040E+05  2184.0      91.000     0.24914    
 STRESS PERIOD TIME 7.86240E+06 1.31040E+05  2184.0      91.000     0.24914    
         TOTAL TIME 8.67456E+07 1.44576E+06  24096.      1004.0      2.7488    
1
1
                            STRESS PERIOD NO.   12, LENGTH =   91.00000    
                            -----------------------------------------------

                              NUMBER OF TIME STEPS =     1

                               MULTIPLIER FOR DELT =     1.500

                            INITIAL TIME STEP SIZE =   91.00000    

                 RECHARGE =  1.000000E-03

 REUSING STREAM SEGMENT DATA FROM LAST STRESS PERIOD
 
 SOLVING FOR HEAD 


     5 CALLS TO PCG ROUTINE FOR TIME STEP   1 IN STRESS PERIOD   12
    17 TOTAL ITERATIONS

 HEAD/DRAWDOWN PRINTOUT FLAG = 1     TOTAL BUDGET PRINTOUT FLAG = 1
 CELL-BY-CELL FLOW TERM FLAG = 1

 OUTPUT FLAGS FOR ALL LAYERS ARE THE SAME:
   HEAD    DRAWDOWN  HEAD  DRAWDOWN
 PRINTOUT  PRINTOUT  SAVE    SAVE
 ----------------------------------
     0         0       0       0



 STREAM LISTING     PERIOD     12   STEP        1

 LAYER ROW COL. STREAM  RCH.  FLOW INTO     FLOW TO   FLOW OUT OF   OVRLND.     DIRECT     STREAM       STREAM     STREAM     STREAM   STREAMBED  STREAMBED
                SEG.NO.  NO.  STRM. RCH.    AQUIFER    STRM. RCH.    RUNOFF     PRECIP       ET          HEAD       DEPTH      WIDTH   CONDCTNC.   GRADIENT

   1   13    1     1     1    1.0000E+05 -2.7830E+04   1.2783E+05  0.000E+00  0.000E+00  0.000E+00  4.84178E+01  1.564E-01  2.000E+01  2.000E+04 -1.392E+00
   1   13    2     1     2    1.2783E+05 -3.7555E+04   1.6539E+05  0.000E+00  0.000E+00  0.000E+00  4.79661E+01  1.820E-01  2.000E+01  2.000E+04 -1.878E+00
   1   14    3     1     3    1.6539E+05 -3.3027E+04   1.9841E+05  0.000E+00  0.000E+00  0.000E+00  4.75139E+01  2.071E-01  2.000E+01  2.000E+04 -1.651E+00
   1   15    4     1     4    1.9841E+05 -3.2255E+04   2.3067E+05  0.000E+00  0.000E+00  0.000E+00  4.70582E+01  2.287E-01  2.000E+01  2.000E+04 -1.613E+00
   1   16    5     1     5    2.3067E+05 -3.3776E+04   2.6444E+05  0.000E+00  0.000E+00  0.000E+00  4.66015E+01  2.492E-01  2.000E+01  2.000E+04 -1.689E+00
   1   16    6     1     6    2.6444E+05 -2.9473E+04   2.9392E+05  0.000E+00  0.000E+00  0.000E+00  4.61428E+01  2.678E-01  2.000E+01  2.000E+04 -1.474E+00
   1   16    7     1     7    2.9392E+05 -2.9251E+04   3.2317E+05  0.000E+00  0.000E+00  0.000E+00  4.56821E+01  2.844E-01  2.000E+01  2.000E+04 -1.463E+00
   1   16    8     1     8    3.2317E+05 -2.9374E+04   3.5254E+05  0.000E+00  0.000E+00  0.000E+00  4.52208E+01  3.003E-01  2.000E+01  2.000E+04 -1.469E+00
   1   16    9     1     9    3.5254E+05 -2.9369E+04   3.8191E+05  0.000E+00  0.000E+00  0.000E+00  4.47589E+01  3.157E-01  2.000E+01  2.000E+04 -1.468E+00
   1   16   10     1    10    3.8191E+05 -2.9272E+04   4.1118E+05  0.000E+00  0.000E+00  0.000E+00  4.42965E+01  3.306E-01  2.000E+01  2.000E+04 -1.464E+00
   1   16   11     1    11    4.1118E+05 -2.9656E+04   4.4084E+05  0.000E+00  0.000E+00  0.000E+00  4.38338E+01  3.451E-01  2.000E+01  2.000E+04 -1.483E+00
   1   16   12     1    12    4.4084E+05 -3.4526E+04   4.7536E+05  0.000E+00  0.000E+00  0.000E+00  4.33719E+01  3.605E-01  2.000E+01  2.000E+04 -1.726E+00
   1   15   13     1    13    4.7536E+05 -3.2631E+04   5.0799E+05  0.000E+00  0.000E+00  0.000E+00  4.29102E+01  3.761E-01  2.000E+01  2.000E+04 -1.632E+00
   1   14   14     1    14    5.0799E+05 -3.2829E+04   5.4082E+05  0.000E+00  0.000E+00  0.000E+00  4.24478E+01  3.910E-01  2.000E+01  2.000E+04 -1.641E+00
   1   13   15     1    15    5.4082E+05 -3.5263E+04   5.7609E+05  0.000E+00  0.000E+00  0.000E+00  4.19855E+01  4.060E-01  2.000E+01  2.000E+04 -1.763E+00
   1   12   16     1    16    5.7609E+05 -4.2219E+04   6.1831E+05  0.000E+00  0.000E+00  0.000E+00  4.15249E+01  4.227E-01  2.000E+01  2.000E+04 -2.111E+00
   1   12   17     1    17    6.1831E+05 -3.2684E+04   6.5099E+05  0.000E+00  0.000E+00  0.000E+00  4.10634E+01  4.384E-01  2.000E+01  2.000E+04 -1.634E+00
   1   12   18     1    18    6.5099E+05 -3.1198E+04   6.8219E+05  0.000E+00  0.000E+00  0.000E+00  4.05992E+01  4.515E-01  2.000E+01  2.000E+04 -1.560E+00
   1   12   19     1    19    6.8219E+05 -3.5558E+04   7.1775E+05  0.000E+00  0.000E+00  0.000E+00  4.01354E+01  4.649E-01  2.000E+01  2.000E+04 -1.778E+00
   1   13   20     1    20    7.1775E+05 -2.5302E+04   7.4305E+05  0.000E+00  0.000E+00  0.000E+00  3.96701E+01  4.769E-01  2.000E+01  2.000E+04 -1.265E+00
   1   14   21     1    21    7.4305E+05 -1.8220E+04   7.6127E+05  0.000E+00  0.000E+00  0.000E+00  3.92013E+01  4.854E-01  2.000E+01  2.000E+04 -9.110E-01
   1   14   22     1    22    7.6127E+05 -1.3715E+03   7.6264E+05  0.000E+00  0.000E+00  0.000E+00  3.87278E+01  4.892E-01  2.000E+01  2.000E+04 -6.858E-02
   1    9   30     2     1    5.0000E+04 -2.6539E+04   7.6539E+04  0.000E+00  0.000E+00  0.000E+00  4.02584E+01  1.334E-01  2.000E+01  2.000E+04 -1.327E+00
   1    9   29     2     2    7.6539E+04 -2.9002E+04   1.0554E+05  0.000E+00  0.000E+00  0.000E+00  4.00410E+01  1.660E-01  2.000E+01  2.000E+04 -1.450E+00
   1    9   28     2     3    1.0554E+05 -3.3286E+04   1.3883E+05  0.000E+00  0.000E+00  0.000E+00  3.98231E+01  1.981E-01  2.000E+01  2.000E+04 -1.664E+00
   1    9   27     2     4    1.3883E+05 -4.7414E+04   1.8624E+05  0.000E+00  0.000E+00  0.000E+00  3.96100E+01  2.350E-01  2.000E+01  2.000E+04 -2.371E+00
   1   10   26     2     5    1.8624E+05 -3.3252E+04   2.1949E+05  0.000E+00  0.000E+00  0.000E+00  3.93935E+01  2.685E-01  2.000E+01  2.000E+04 -1.663E+00
   1   11   25     2     6    2.1949E+05 -2.4647E+04   2.4414E+05  0.000E+00  0.000E+00  0.000E+00  3.91658E+01  2.908E-01  2.000E+01  2.000E+04 -1.232E+00
   1   12   24     2     7    2.4414E+05 -1.7802E+04   2.6194E+05  0.000E+00  0.000E+00  0.000E+00  3.89315E+01  3.065E-01  2.000E+01  2.000E+04 -8.901E-01
   1   13   23     2     8    2.6194E+05 -1.2472E+04   2.7441E+05  0.000E+00  0.000E+00  0.000E+00  3.86924E+01  3.174E-01  2.000E+01  2.000E+04 -6.236E-01
   1   14   22     2     9    2.7441E+05 -6.9430E+03   2.8136E+05  0.000E+00  0.000E+00  0.000E+00  3.84493E+01  3.243E-01  2.000E+01  2.000E+04 -3.471E-01
   1   14   22     3     1    1.0440E+06 -1.4968E+04   1.0590E+06  0.000E+00  0.000E+00  0.000E+00  3.80480E+01  4.925E-01  2.000E+01  2.000E+04 -7.484E-01
   1   15   23     3     2    1.0590E+06 -2.2654E+04   1.0816E+06  0.000E+00  0.000E+00  0.000E+00  3.71644E+01  4.977E-01  2.000E+01  2.000E+04 -1.133E+00
   1   15   24     3     3    1.0816E+06 -1.8554E+04   1.1002E+06  0.000E+00  0.000E+00  0.000E+00  3.62812E+01  5.035E-01  2.000E+01  2.000E+04 -9.277E-01
   1   15   25     3     4    1.1002E+06 -1.7323E+04   1.1175E+06  0.000E+00  0.000E+00  0.000E+00  3.53973E+01  5.084E-01  2.000E+01  2.000E+04 -8.662E-01
   1   15   26     3     5    1.1175E+06 -2.0964E+04   1.1385E+06  0.000E+00  0.000E+00  0.000E+00  3.45137E+01  5.137E-01  2.000E+01  2.000E+04 -1.048E+00
   1   16   27     3     6    1.1385E+06 -2.8835E+04   1.1673E+06  0.000E+00  0.000E+00  0.000E+00  3.36316E+01  5.204E-01  2.000E+01  2.000E+04 -1.442E+00
   1   17   28     3     7    1.1673E+06 -3.6107E+04   1.2034E+06  0.000E+00  0.000E+00  0.000E+00  3.27514E+01  5.292E-01  2.000E+01  2.000E+04 -1.805E+00
   1   18   29     3     8    1.2034E+06 -4.7207E+04   1.2506E+06  0.000E+00  0.000E+00  0.000E+00  3.18736E+01  5.403E-01  2.000E+01  2.000E+04 -2.360E+00
   1   18   30     3     9    1.2506E+06 -4.3677E+04   1.2943E+06  0.000E+00  0.000E+00  0.000E+00  3.09966E+01  5.522E-01  2.000E+01  2.000E+04 -2.184E+00



1
  VOLUMETRIC BUDGET FOR ENTIRE MODEL AT END OF TIME STEP  1 IN STRESS PERIOD  12
  ------------------------------------------------------------------------------

     CUMULATIVE VOLUMES      L**3       RATES FOR THIS TIME STEP      L**3/T
     ------------------                 ------------------------

           IN:                                      IN:
           ---                                      ---
             STORAGE =    20809288.2531               STORAGE =          42.8476
       CONSTANT HEAD =  1262748506.6540         CONSTANT HEAD =     1156059.7459
            RECHARGE =    26413200.0000              RECHARGE =       27600.0000
      STREAM LEAKAGE =           0.0000        STREAM LEAKAGE =           0.0000
        MANAGED FLOW =           0.0000          MANAGED FLOW =           0.0000

            TOTAL IN =  1309970994.9072              TOTAL IN =     1183702.5935

          OUT:                                     OUT:
          ----                                     ----
             STORAGE =      946595.9215               STORAGE =        1121.6114
       CONSTANT HEAD =           0.0000         CONSTANT HEAD =           0.0000
            RECHARGE =           0.0000              RECHARGE =           0.0000
      STREAM LEAKAGE =  1253669454.0412        STREAM LEAKAGE =     1144285.3506
        MANAGED FLOW =    55354997.0962          MANAGED FLOW =       38295.2866

           TOTAL OUT =  1309971047.0589             TOTAL OUT =     1183702.2485

            IN - OUT =         -52.1518              IN - OUT =           0.3450

 PERCENT DISCREPANCY =           0.00     PERCENT DISCREPANCY =           0.00






          TIME SUMMARY AT END OF TIME STEP   1 IN STRESS PERIOD   12
                    SECONDS     MINUTES      HOURS       DAYS        YEARS
                    -----------------------------------------------------------
   TIME STEP LENGTH 7.86240E+06 1.31040E+05  2184.0      91.000     0.24914    
 STRESS PERIOD TIME 7.86240E+06 1.31040E+05  2184.0      91.000     0.24914    
         TOTAL TIME 9.46080E+07 1.57680E+06  26280.      1095.0      2.9979    
1

 Run end date and time (yyyy/mm/dd hh:mm:ss): 2011/03/09  8:14:07
 Elapsed run time:  1.859 Seconds

