                                  MODFLOW-LGR2     
      U.S. GEOLOGICAL SURVEY MODULAR FINITE-DIFFERENCE GROUNDWATER FLOW MODEL
                 VERSION GWM-2005 1.5.0 081513,FROM MF-LGR V2.0


     FINAL FLOW PROCESS SIMULATION FOR GWM                                                                                                                                                                   


 REWOUND ..\data\MNWSUPPLY\mnwsupply.dis
 FILE TYPE:DIS   UNIT    8

 REWOUND ..\data\MNWSUPPLY\mnwsupply.bas
 FILE TYPE:BAS6   UNIT    9

 REWOUND ..\data\MNWSUPPLY\mnwsupply.bcf
 FILE TYPE:BCF6   UNIT   10

 REWOUND ..\data\MNWSUPPLY\mnwsupply.gwm
 FILE TYPE:GWM   UNIT   20

 REWOUND ..\data\MNWSUPPLY\mnwsupply.mnw2
 FILE TYPE:MNW2   UNIT   75

 REWOUND ..\data\MNWSUPPLY\mnwsupply.drn
 FILE TYPE:DRN   UNIT   77

 REWOUND ..\data\MNWSUPPLY\mnwsupply.rch
 FILE TYPE:RCH   UNIT   72

 REWOUND ..\data\MNWSUPPLY\mnwsupply.pcg
 FILE TYPE:PCG   UNIT   74

 REWOUND ..\data\MNWSUPPLY\mnwsupply.chd
 FILE TYPE:CHD   UNIT   76

 REWOUND ..\data\MNWSUPPLY\mnwsupply.oc
 FILE TYPE:OC   UNIT   71

 REWOUND ..\data\MNWSUPPLY\mnwsupply.wel
 FILE TYPE:WEL   UNIT   80

 REWOUND mnwsupply.gwmwfile
 FILE TYPE:DATA   UNIT   30

 REWOUND mnwsupply.ufh
 FILE TYPE:DATA(BINARY)   UNIT   89

 REWOUND mnwsupply.cbc
 FILE TYPE:DATA(BINARY)   UNIT   90

 BAS -- BASIC PACKAGE, VERSION 7, 5/2/2005 INPUT READ FROM UNIT    9

 DISCRETIZATION INPUT DATA READ FROM UNIT    8
 #MNW-SUPPLY Sample Problem, DIS file
 #January 2012
    2 LAYERS        21 ROWS        14 COLUMNS
    5 STRESS PERIOD(S) IN SIMULATION
 MODEL TIME UNIT IS DAYS
 MODEL LENGTH UNIT IS UNDEFINED
  Confining bed flag for each layer:
   0   0

                     DELR =   2500.00    

                     DELC =   2500.00    

 TOP ELEVATION OF LAYER 1 =   500.000    

   MODEL LAYER BOTTOM EL. =   50.0000     FOR LAYER   1

   MODEL LAYER BOTTOM EL. =   0.00000     FOR LAYER   2


 STRESS PERIOD     LENGTH       TIME STEPS     MULTIPLIER FOR DELT    SS FLAG
 ----------------------------------------------------------------------------
        1         5000.000         15                    1.300         SS
        2         5000.000         15                    1.300         SS
        3         60.00000         15                    1.300         TR
        4         180.0000         15                    1.300         TR
        5         730.1000         50                    1.000         TR

 COMBINED STEADY-STATE AND TRANSIENT SIMULATION



 
 #MNW-SUPPLY Sample Problem, BAS file                                            
 #January 2012                                                                   
 THE FREE FORMAT OPTION HAS BEEN SELECTED

           BOUNDARY ARRAY =              1 FOR LAYER   1

           BOUNDARY ARRAY =              2 FOR LAYER   2

 AQUIFER HEAD WILL BE SET TO  999.00     AT ALL NO-FLOW NODES (IBOUND=0).

             INITIAL HEAD =   100.000     FOR LAYER   1

             INITIAL HEAD =   100.000     FOR LAYER   2
 #MNW-SUPPLY Sample Problem, OC file
 #January 2012

 OUTPUT CONTROL IS SPECIFIED EVERY TIME STEP
 HEAD PRINT FORMAT CODE IS   2    DRAWDOWN PRINT FORMAT CODE IS   2
 HEADS WILL BE SAVED ON UNIT   89    DRAWDOWNS WILL BE SAVED ON UNIT   89

 BCF -- BLOCK-CENTERED FLOW PACKAGE, VERSION 7, 5/2/2005
         INPUT READ FROM UNIT 10
 TRANSIENT SIMULATION
 HEAD AT CELLS THAT CONVERT TO DRY=   90.000    
 WETTING CAPABILITY IS NOT ACTIVE
      LAYER  LAYER-TYPE CODE     INTERBLOCK T
      --------------------------------------------
         1            1          0 -- HARMONIC    
         2            0          0 -- HARMONIC    

 COLUMN TO ROW ANISOTROPY =   1.00000    

     PRIMARY STORAGE COEF =  5.000000E-02 FOR LAYER   1

    HYD. COND. ALONG ROWS =   60.0000     FOR LAYER   1

 VERT HYD COND /THICKNESS =  2.000000E-04 FOR LAYER   1

     PRIMARY STORAGE COEF =  1.000000E-04 FOR LAYER   2

     TRANSMIS. ALONG ROWS =   15000.0     FOR LAYER   2

 WEL -- WELL PACKAGE, VERSION 7, 5/2/2005 INPUT READ FROM UNIT   80
 #MNW-SUPPLY Sample Problem, WEL file
 #January 2012
 No named parameters
 MAXIMUM OF      6 ACTIVE WELLS AT ONE TIME


     0 Well parameters

 DRN -- DRAIN PACKAGE, VERSION 7, 5/2/2005 INPUT READ FROM UNIT   77
 #MNW-SUPPLY Sample Problem, DRN file
 #January 2012
 No named parameters
 MAXIMUM OF     50 ACTIVE DRAINS AT ONE TIME


     0 Drain parameters

 RCH -- RECHARGE PACKAGE, VERSION 7, 5/2/2005 INPUT READ FROM UNIT   72
 #MNW-SUPPLY Sample Problem, RCH file
 #January 2012
 No named parameters
 OPTION 1 -- RECHARGE TO TOP LAYER


     0 Recharge parameters

 CHD -- TIME-VARIANT SPECIFIED-HEAD OPTION, VERSION 7, 5/2/2005
 INPUT READ FROM UNIT   76
 #MNW-SUPPLY Sample Problem, CHD file
 #January 2012
 No named parameters
 MAXIMUM OF     50 TIME-VARIANT SPECIFIED-HEAD CELLS AT ONE TIME


     0 TIME-VARIANT SPECIFIED-HEAD PARAMETERS

 MNW2 -- MULTI-NODE WELL 2 PACKAGE, VERSION 7.2, 12/20/2012.
    INPUT READ FROM UNIT  75
 # MNW2 input file written by GWM
 #   Combines unmanaged MNW2 wells read from original MNW file
 #     with managed MNW2 wells read from DECVAR file
 #     MNWMAX is forced to negative so that NODTOT is read
 #     This file can be discarded
 MAXIMUM OF    6 ACTIVE MULTI-NODE WELLS AT ONE TIME
 
 IWL2CB =          -90
 CELL-BY-CELL FLOWS WILL BE PRINTED WHEN ICBCFL NOT 0
 MNWPRNT =            2
1
                            STRESS PERIOD NO.    1, LENGTH =   5000.000    
                            -----------------------------------------------

                              NUMBER OF TIME STEPS =    15

                               MULTIPLIER FOR DELT =     1.300

                            INITIAL TIME STEP SIZE =   29.88888    

 WELL NO.  LAYER   ROW   COL   STRESS RATE         
 --------------------------------------------------
      1      1      3      6     -0.6685E+05
      2      1      3      9     -0.6685E+05
      3      1      6      9     -0.6685E+05
      4      1      6     12     -0.6685E+05
      5      1      9      6     -0.6685E+05
      6      1      9      9     -0.6685E+05

      6 WELLS

 DRAIN NO.  LAYER   ROW   COL     DRAIN EL.  CONDUCTANCE         
 ----------------------------------------------------------------
      1      1     13     13       128.0          0.1000E+05
      2      1     13     12       128.0          0.1000E+05
      3      1     13     11       129.0          0.1000E+05
      4      1     13     10       129.0          0.1000E+05
      5      1     13      9       130.0          0.1000E+05
      6      1     13      8       130.0          0.1000E+05
      7      1     13      7       131.0          0.1000E+05
      8      1     13      6       131.0          0.1000E+05

      8 DRAINS

                 RECHARGE =  1.600000E-03

 CHD NO.   LAYER   ROW   COL    START HEAD        END HEAD         
 ------------------------------------------------------------------
      1      1      1     14       139.0           139.0    
      2      1      2     14       138.0           138.0    
      3      1      3     14       137.0           137.0    
      4      1      4     14       136.0           136.0    
      5      1      5     14       135.0           135.0    
      6      1      6     14       134.0           134.0    
      7      1      7     14       133.0           133.0    
      8      1      8     14       132.0           132.0    
      9      1      9     14       131.0           131.0    
     10      1     10     14       130.0           130.0    
     11      1     11     14       129.0           129.0    
     12      1     12     14       128.0           128.0    
     13      1     13     14       127.0           127.0    
     14      1     14     14       126.0           126.0    
     15      1     15     14       125.0           125.0    
     16      1     16     14       124.0           124.0    
     17      1     17     14       123.0           123.0    
     18      1     18     14       122.0           122.0    
     19      1     19     14       121.0           121.0    
     20      1     20     14       120.0           120.0    
     21      1     21     14       119.0           119.0    


     21 TIME-VARIANT SPECIFIED-HEAD CELLS
 
 MNW2 Input:
 
 
 WELLID             NNODES    LOSSTYPE PUMPLOC  Qlimit  PPFLAG PUMPCAP
 QU1                     2      SKIN         0       0       0       0
 
 Node  Lay  Row  Col       Rw      Rskin      Kskin
    1    1    3    3   0.5000      1.000      24.56    
    2    2    3    3   0.5000      1.000      122.8    
 
 
 WELLID             NNODES    LOSSTYPE PUMPLOC  Qlimit  PPFLAG PUMPCAP
 QU2                     1      NONE         0      -1       0       0
 
 Node  Lay  Row  Col
    1    2   13    7
 
 
 WELLID             NNODES    LOSSTYPE PUMPLOC  Qlimit  PPFLAG PUMPCAP
 MNWQM1                  2      SKIN         0       0       0       0
 
 Node  Lay  Row  Col       Rw      Rskin      Kskin
    1    1    3   12   0.5000      1.000      24.56    
    2    2    3   12   0.5000      1.000      122.8    
 
 
 WELLID             NNODES    LOSSTYPE PUMPLOC  Qlimit  PPFLAG PUMPCAP
 MNWQM2A                -1      THIEM        0       0       0       0
 
 NNODES < 0: well defined using open intervals as described below
 Interval      Ztop       Zbotm      Row  Col      Rw     
    1        450.00      50.000        6    6   0.5000    
 
 The following nodes were assigned to this well based on above open interval information
 Node  Lay  Row  Col 
    1    1    6    6
 
 
 WELLID             NNODES    LOSSTYPE PUMPLOC  Qlimit  PPFLAG PUMPCAP
 MNWQM2B                -1      THIEM        0       0       0       0
 
 NNODES < 0: well defined using open intervals as described below
 Interval      Ztop       Zbotm      Row  Col      Rw     
    1        250.00      100.00        9    3   0.5000    
 
 The following nodes were assigned to this well based on above open interval information
 Node  Lay  Row  Col 
    1    1    9    3
 
 
 WELLID             NNODES    LOSSTYPE PUMPLOC  Qlimit  PPFLAG PUMPCAP
 MNWQM3                 -2  SPECIFYCWC       0       0       0       0
 
 NNODES < 0: well defined using open intervals as described below
 Interval      Ztop       Zbotm      Row  Col     spec.CWC   
    1        50.000      30.000       15    9      5000.    
    2        25.000      10.000       15    9      5000.    
 
 The following nodes were assigned to this well based on above open interval information
 Node  Lay  Row  Col 
    1    2   15    9   COMPOSITE
 
 MNW2:            2  active wells in stress period            1
 
 
 WELLNAME = QU1                 
MNW2 Well QU1                  active, desired Q =  0.0000E+00 for stress period    1
 
 WELLNAME = QU2                 
 Qlimit < 0 : this well will be constrained
     Hlim =    115.00    
     QCUT =    0
 
MNW2 Well QU2                  active, desired Q =  0.0000E+00 for stress period    1

Flows at Managed Wells for Stress Period    1

 Well no.  Layer   Row   Col   Stress Rate
 ----------------------------------------------------
 ----------------------------------------------------
                      Total:    0.000000000000000    
 
 SOLVING FOR HEAD 
 
MNW2 Well Conductance and Screen (Open Interval) Data
                              M O D E L  L A Y E R     W E L L  S C R E E N   Penetration    SKIN       CALCULATED
WELLID        Node    CWC*     top_elev    bott.elev    top_elev   bott.elev    fraction     COEFF.          B
QU1              1   2387.        100.0       50.00       100.0       50.00       1.000       1.000      5.3052E-05          
QU1              2  1.1934E+04    50.00       0.000       50.00       0.000       1.000       1.000      1.0610E-05          
QU2              1  1.5000E+04    50.00       0.000       50.00       0.000       1.000         N/A         N/A              
* Cell-to-well conductance values (CWC) may change during the course of a stress period
 


     8 CALLS TO PCG ROUTINE FOR TIME STEP   1 IN STRESS PERIOD    1
    99 TOTAL ITERATIONS

 HEAD/DRAWDOWN PRINTOUT FLAG = 0     TOTAL BUDGET PRINTOUT FLAG = 0
 CELL-BY-CELL FLOW TERM FLAG = 0

 OUTPUT FLAGS FOR ALL LAYERS ARE THE SAME:
   HEAD    DRAWDOWN  HEAD  DRAWDOWN
 PRINTOUT  PRINTOUT  SAVE    SAVE
 ----------------------------------
     1         0       1       0
 
 SOLVING FOR HEAD 
     1 CALLS TO PCG ROUTINE FOR TIME STEP   2 IN STRESS PERIOD    1
     1 TOTAL ITERATIONS

 HEAD/DRAWDOWN PRINTOUT FLAG = 0     TOTAL BUDGET PRINTOUT FLAG = 0
 CELL-BY-CELL FLOW TERM FLAG = 0
 REUSING PREVIOUS VALUES OF IOFLG
 
 SOLVING FOR HEAD 
     1 CALLS TO PCG ROUTINE FOR TIME STEP   3 IN STRESS PERIOD    1
     1 TOTAL ITERATIONS

 HEAD/DRAWDOWN PRINTOUT FLAG = 0     TOTAL BUDGET PRINTOUT FLAG = 0
 CELL-BY-CELL FLOW TERM FLAG = 0
 REUSING PREVIOUS VALUES OF IOFLG
 
 SOLVING FOR HEAD 
     1 CALLS TO PCG ROUTINE FOR TIME STEP   4 IN STRESS PERIOD    1
     1 TOTAL ITERATIONS

 HEAD/DRAWDOWN PRINTOUT FLAG = 0     TOTAL BUDGET PRINTOUT FLAG = 0
 CELL-BY-CELL FLOW TERM FLAG = 0
 REUSING PREVIOUS VALUES OF IOFLG
 
 SOLVING FOR HEAD 
     1 CALLS TO PCG ROUTINE FOR TIME STEP   5 IN STRESS PERIOD    1
     1 TOTAL ITERATIONS

 HEAD/DRAWDOWN PRINTOUT FLAG = 0     TOTAL BUDGET PRINTOUT FLAG = 0
 CELL-BY-CELL FLOW TERM FLAG = 0
 REUSING PREVIOUS VALUES OF IOFLG
 
 SOLVING FOR HEAD 
     1 CALLS TO PCG ROUTINE FOR TIME STEP   6 IN STRESS PERIOD    1
     1 TOTAL ITERATIONS

 HEAD/DRAWDOWN PRINTOUT FLAG = 0     TOTAL BUDGET PRINTOUT FLAG = 0
 CELL-BY-CELL FLOW TERM FLAG = 0
 REUSING PREVIOUS VALUES OF IOFLG
 
 SOLVING FOR HEAD 
     1 CALLS TO PCG ROUTINE FOR TIME STEP   7 IN STRESS PERIOD    1
     1 TOTAL ITERATIONS

 HEAD/DRAWDOWN PRINTOUT FLAG = 0     TOTAL BUDGET PRINTOUT FLAG = 0
 CELL-BY-CELL FLOW TERM FLAG = 0
 REUSING PREVIOUS VALUES OF IOFLG
 
 SOLVING FOR HEAD 
     1 CALLS TO PCG ROUTINE FOR TIME STEP   8 IN STRESS PERIOD    1
     1 TOTAL ITERATIONS

 HEAD/DRAWDOWN PRINTOUT FLAG = 0     TOTAL BUDGET PRINTOUT FLAG = 0
 CELL-BY-CELL FLOW TERM FLAG = 0
 REUSING PREVIOUS VALUES OF IOFLG
 
 SOLVING FOR HEAD 
     1 CALLS TO PCG ROUTINE FOR TIME STEP   9 IN STRESS PERIOD    1
     1 TOTAL ITERATIONS

 HEAD/DRAWDOWN PRINTOUT FLAG = 0     TOTAL BUDGET PRINTOUT FLAG = 0
 CELL-BY-CELL FLOW TERM FLAG = 0
 REUSING PREVIOUS VALUES OF IOFLG
 
 SOLVING FOR HEAD 
     1 CALLS TO PCG ROUTINE FOR TIME STEP  10 IN STRESS PERIOD    1
     1 TOTAL ITERATIONS

 HEAD/DRAWDOWN PRINTOUT FLAG = 0     TOTAL BUDGET PRINTOUT FLAG = 0
 CELL-BY-CELL FLOW TERM FLAG = 0
 REUSING PREVIOUS VALUES OF IOFLG
 
 SOLVING FOR HEAD 
     1 CALLS TO PCG ROUTINE FOR TIME STEP  11 IN STRESS PERIOD    1
     1 TOTAL ITERATIONS

 HEAD/DRAWDOWN PRINTOUT FLAG = 0     TOTAL BUDGET PRINTOUT FLAG = 0
 CELL-BY-CELL FLOW TERM FLAG = 0
 REUSING PREVIOUS VALUES OF IOFLG
 
 SOLVING FOR HEAD 
     1 CALLS TO PCG ROUTINE FOR TIME STEP  12 IN STRESS PERIOD    1
     1 TOTAL ITERATIONS

 HEAD/DRAWDOWN PRINTOUT FLAG = 0     TOTAL BUDGET PRINTOUT FLAG = 0
 CELL-BY-CELL FLOW TERM FLAG = 0
 REUSING PREVIOUS VALUES OF IOFLG
 
 SOLVING FOR HEAD 
     1 CALLS TO PCG ROUTINE FOR TIME STEP  13 IN STRESS PERIOD    1
     1 TOTAL ITERATIONS

 HEAD/DRAWDOWN PRINTOUT FLAG = 0     TOTAL BUDGET PRINTOUT FLAG = 0
 CELL-BY-CELL FLOW TERM FLAG = 0
 REUSING PREVIOUS VALUES OF IOFLG
 
 SOLVING FOR HEAD 
     1 CALLS TO PCG ROUTINE FOR TIME STEP  14 IN STRESS PERIOD    1
     1 TOTAL ITERATIONS

 HEAD/DRAWDOWN PRINTOUT FLAG = 0     TOTAL BUDGET PRINTOUT FLAG = 0
 CELL-BY-CELL FLOW TERM FLAG = 0
 REUSING PREVIOUS VALUES OF IOFLG
 
 SOLVING FOR HEAD 
     1 CALLS TO PCG ROUTINE FOR TIME STEP  15 IN STRESS PERIOD    1
     1 TOTAL ITERATIONS

 HEAD/DRAWDOWN PRINTOUT FLAG = 1     TOTAL BUDGET PRINTOUT FLAG = 1
 CELL-BY-CELL FLOW TERM FLAG = 1
 REUSING PREVIOUS VALUES OF IOFLG

 Nodal information for all MNW2 wells, PERIOD =    1  STEP =   15
WELLID                NODE   Lay   Row   Col        Totim        Q-node         hwell         hcell    Seepage elev.
QU1                      1     1     3     3   5.000000E+03 -1.421435E+04  1.695400E+02  1.719812E+02
QU1                      2     2     3     3   5.000000E+03  1.421435E+04  1.695400E+02  1.683489E+02
QU2                      1     2    13     7   5.000000E+03  0.000000E+00  1.562288E+02  1.562288E+02

     Summary information for MNW2 wells
WELLID                    Totim            Qin           Qout           Qnet          hwell
QU1                     5000.00       -14214.3        14214.3      -3.201421E-10    169.540    
QU2                     5000.00        0.00000        0.00000        0.00000        156.229    
 
 UBUDSV SAVING "            MNW2" ON UNIT 90 AT TIME STEP 15, STRESS PERIOD    1
1
              HEAD IN LAYER   1 AT END OF TIME STEP  15 IN STRESS PERIOD    1
  ---------------------------------------------------------------------------

              1             2             3             4             5             6             7             8             9
             10            11            12            13            14
 ..............................................................................................................................
   1    174.131       173.695       172.843       171.635       170.040       168.168       166.335       164.251       161.886    
        159.473       156.527       152.605       147.120       139.000    
   2    174.027       173.549       172.598       171.377       169.606       167.339       165.759       163.634       160.928    
        158.885       156.120       152.224       146.622       138.000    
   3    173.855       173.298       171.981       170.985       168.884       164.879       164.819       162.601       158.112    
        157.823       155.419       151.549       145.878       137.000    
   4    173.685       173.199       172.227       170.969       169.136       166.764       165.012       162.637       159.657    
        157.560       154.686       150.595       144.935       136.000    
   5    173.460       173.010       172.123       170.846       169.142       167.079       164.880       162.203       159.028    
        156.754       153.585       148.998       143.721       135.000    
   6    173.156       172.708       171.819       170.509       168.790       166.715       164.314       161.172       156.138    
        155.445       152.161       145.583       142.265       134.000    
   7    172.776       172.305       171.362       169.950       168.088       165.871       163.541       160.760       157.509    
        155.199       151.999       147.357       141.982       133.000    
   8    172.343       171.830       170.789       169.190       166.991       164.270       162.242       159.658       156.533    
        154.378       151.465       147.302       141.453       132.000    
   9    171.893       171.327       170.166       168.325       165.548       160.872       160.398       157.851       153.080    
        152.819       150.422       146.508       140.611       131.000    
  10    171.467       170.848       169.581       167.614       164.909       161.649       159.331       156.746       153.809    
        151.763       149.081       145.247       139.486       130.000    
  11    171.106       170.428       169.025       166.819       163.771       160.160       157.136       154.460       151.938    
        149.611       146.927       143.329       137.974       129.000    
  12    170.859       170.122       168.558       165.964       161.995       156.504       152.793       150.085       147.848    
        145.702       143.354       140.286       135.794       128.000    
  13    170.774       170.014       168.364       165.449       160.161       148.439       144.494       142.188       140.618    
        138.910       137.317       135.101       132.278       127.000    
  14    170.875       170.163       168.652       166.139       162.275       156.877       153.167       150.408       148.060    
        145.676       143.013       139.567       134.582       126.000    
  15    171.126       170.498       169.205       167.183       164.394       161.034       157.971       155.207       152.531    
        149.672       146.322       141.957       135.605       125.000    
  16    171.459       170.916       169.821       168.171       166.002       163.458       160.817       158.130       155.298    
        152.124       148.300       143.279       135.999       124.000    
  17    171.814       171.338       170.391       168.985       167.161       164.996       162.592       159.966       157.044    
        153.656       149.496       144.002       136.052       123.000    
  18    172.140       171.713       170.865       169.611       167.978       166.006       163.728       161.136       158.153    
        154.615       150.213       144.368       135.908       122.000    
  19    172.406       172.011       171.225       170.061       168.534       166.663       164.452       161.874       158.846    
        155.201       150.624       144.516       135.650       121.000    
  20    172.593       172.216       171.466       170.351       168.881       167.062       164.883       162.309       159.250    
        155.534       150.837       144.537       135.342       120.000    
  21    172.689       172.320       171.587       170.494       169.048       167.250       165.085       162.511       159.435    
        155.683       150.922       144.509       135.074       119.000    
1
              HEAD IN LAYER   2 AT END OF TIME STEP  15 IN STRESS PERIOD    1
  ---------------------------------------------------------------------------

              1             2             3             4             5             6             7             8             9
             10            11            12            13            14
 ..............................................................................................................................
   1    169.340       169.005       168.332       167.307       165.996       164.461       162.766       160.930       158.992    
        157.007       155.008       153.070       151.361       150.209    
   2    169.276       168.954       168.307       167.234       165.882       164.312       162.608       160.757       158.796    
        156.817       154.821       152.878       151.159       149.991    
   3    169.137       168.844       168.349       167.096       165.675       164.046       162.335       160.454       158.441    
        156.471       154.472       152.517       150.785       149.603    
   4    168.898       168.566       167.899       166.800       165.411       163.792       162.025       160.102       158.072    
        156.041       153.999       152.014       150.271       149.082    
   5    168.593       168.236       167.521       166.445       165.065       163.438       161.623       159.647       157.570    
        155.497       153.412       151.388       149.646       148.463    
   6    168.239       167.865       167.122       166.029       164.627       162.969       161.109       159.081       156.941    
        154.861       152.749       150.678       148.957       147.783    
   7    167.850       167.458       166.682       165.548       164.097       162.390       160.497       158.452       156.320    
        154.207       152.092       150.044       148.280       147.077    
   8    167.444       167.029       166.212       165.017       163.491       161.708       159.781       157.720       155.581    
        153.474       151.377       149.350       147.566       146.341    
   9    167.043       166.604       165.737       164.469       162.848       160.958       158.995       156.902       154.730    
        152.654       150.586       148.582       146.803       145.575    
  10    166.678       166.213       165.295       163.954       162.249       160.287       158.223       156.085       153.920    
        151.813       149.745       147.761       146.006       144.795    
  11    166.378       165.888       164.919       163.497       161.685       159.606       157.432       155.239       153.062    
        150.938       148.874       146.919       145.209       144.036    
  12    166.175       165.666       164.652       163.152       161.216       158.971       156.687       154.440       152.246    
        150.113       148.058       146.133       144.476       143.359    
  13    166.090       165.575       164.546       163.010       160.992       158.582       156.229       153.950       151.737    
        149.578       147.502       145.567       143.925       142.844    
  14    166.131       165.629       164.630       163.148       161.226       158.983       156.674       154.375       152.099    
        149.849       147.654       145.581       143.785       142.569    
  15    166.278       165.802       164.860       163.475       161.696       159.623       157.402       155.107       152.772    
        150.414       148.069       145.818       143.831       142.460    
  16    166.496       166.051       165.173       163.885       162.236       160.296       158.154       155.872       153.487    
        151.027       148.538       146.113       143.945       142.435    
  17    166.744       166.328       165.507       164.302       162.751       160.907       158.825       156.553       154.126    
        151.578       148.963       146.386       144.064       142.437    
  18    166.987       166.594       165.816       164.673       163.194       161.413       159.372       157.105       154.643    
        152.023       149.304       146.603       144.154       142.431    
  19    167.194       166.817       166.071       164.970       163.538       161.799       159.782       157.515       155.025    
        152.350       149.552       146.755       144.206       142.405    
  20    167.343       166.976       166.250       165.176       163.771       162.056       160.054       157.785       155.276    
        152.562       149.710       146.845       144.224       142.362    
  21    167.420       167.059       166.342       165.280       163.889       162.185       160.188       157.918       155.399    
        152.666       149.785       146.885       144.222       142.321    

 HEAD WILL BE SAVED ON UNIT   89 AT END OF TIME STEP   15, STRESS PERIOD    1
1
  VOLUMETRIC BUDGET FOR ENTIRE MODEL AT END OF TIME STEP   15, STRESS PERIOD   1
  ------------------------------------------------------------------------------

     CUMULATIVE VOLUMES      L**3       RATES FOR THIS TIME STEP      L**3/T
     ------------------                 ------------------------

           IN:                                      IN:
           ---                                      ---
             STORAGE =           0.0000               STORAGE =           0.0000
       CONSTANT HEAD =           0.0000         CONSTANT HEAD =           0.0000
               WELLS =           0.0000                 WELLS =           0.0000
              DRAINS =           0.0000                DRAINS =           0.0000
            RECHARGE = 13650000000.0000              RECHARGE =     2730000.0000
                MNW2 =    71071729.3451                  MNW2 =       14214.3454
       MANAGED WELLS =           0.0000         MANAGED WELLS =           0.0000

            TOTAL IN = 13721071729.3451              TOTAL IN =     2744214.3454

          OUT:                                     OUT:
          ----                                     ----
             STORAGE =           0.0000               STORAGE =           0.0000
       CONSTANT HEAD =  7477259244.5160         CONSTANT HEAD =     1495452.0202
               WELLS =  2005500000.0000                 WELLS =      401100.0000
              DRAINS =  4167238914.6957                DRAINS =      833447.7923
            RECHARGE =           0.0000              RECHARGE =           0.0000
                MNW2 =    71071729.3451                  MNW2 =       14214.3454
       MANAGED WELLS =           0.0000         MANAGED WELLS =           0.0000

           TOTAL OUT = 13721069888.5568             TOTAL OUT =     2744214.1579

            IN - OUT =        1840.7883              IN - OUT =           0.1875

 PERCENT DISCREPANCY =           0.00     PERCENT DISCREPANCY =           0.00






         TIME SUMMARY AT END OF TIME STEP   15 IN STRESS PERIOD    1
                    SECONDS     MINUTES      HOURS       DAYS        YEARS
                    -----------------------------------------------------------
   TIME STEP LENGTH 1.01679E+08 1.69465E+06  28244.      1176.8      3.2220    
 STRESS PERIOD TIME 4.32000E+08 7.20000E+06 1.20000E+05  5000.0      13.689    
         TOTAL TIME 4.32000E+08 7.20000E+06 1.20000E+05  5000.0      13.689    
1
1
                            STRESS PERIOD NO.    2, LENGTH =   5000.000    
                            -----------------------------------------------

                              NUMBER OF TIME STEPS =    15

                               MULTIPLIER FOR DELT =     1.300

                            INITIAL TIME STEP SIZE =   29.88888    

 WELL NO.  LAYER   ROW   COL   STRESS RATE         
 --------------------------------------------------
      1      1      3      6     -0.6685E+05
      2      1      3      9     -0.6685E+05
      3      1      6      9     -0.6685E+05
      4      1      6     12     -0.6685E+05
      5      1      9      6     -0.6685E+05
      6      1      9      9     -0.6685E+05

      6 WELLS

 REUSING NON-PARAMETER DRAINS FROM LAST STRESS PERIOD

      8 DRAINS

                 RECHARGE =  1.600000E-03

 REUSING NON-PARAMETER SPECIFIED-HEAD DATA FROM LAST STRESS PERIOD


     21 TIME-VARIANT SPECIFIED-HEAD CELLS
 
 MNW2:            6  active wells in stress period            2
 
 
 WELLNAME = QU1                 
MNW2 Well QU1                  active, desired Q = -2.0000E+04 for stress period    2
 
 WELLNAME = QU2                 
 Qlimit < 0 : this well will be constrained
     Hlim =    115.00    
     QCUT =    0
 
MNW2 Well QU2                  active, desired Q = -6.6850E+04 for stress period    2
 
 WELLNAME = MNWQM1              
MNW2 Well MNWQM1               active, desired Q = -2.0000E+04 for stress period    2
 
 WELLNAME = MNWQM2A             
MNW2 Well MNWQM2A              active, desired Q = -2.8409E+03 for stress period    2
 
 WELLNAME = MNWQM2B             
MNW2 Well MNWQM2B              active, desired Q = -2.8409E+03 for stress period    2
 
 WELLNAME = MNWQM3              
MNW2 Well MNWQM3               active, desired Q = -2.9713E+03 for stress period    2

Flows at Managed Wells for Stress Period    2

 Well no.  Layer   Row   Col   Stress Rate
 ----------------------------------------------------
        1      1     9    12   -20000.00000000000    
        2      1    18     4    0.000000000000000    
 ----------------------------------------------------
                      Total:   -20000.00000000000    
 
 SOLVING FOR HEAD 
 
MNW2 Well Conductance and Screen (Open Interval) Data
                              M O D E L  L A Y E R     W E L L  S C R E E N   Penetration    SKIN       CALCULATED
WELLID        Node    CWC*     top_elev    bott.elev    top_elev   bott.elev    fraction     COEFF.          B
QU1              1   5823.        172.0       50.00       172.0       50.00       1.000       1.000      2.1746E-05          
QU1              2  1.1934E+04    50.00       0.000       50.00       0.000       1.000       1.000      1.0610E-05          
QU2              1  1.5000E+04    50.00       0.000       50.00       0.000       1.000         N/A         N/A              
MNWQM1           1   4847.        151.5       50.00       151.5       50.00       1.000       1.000      2.6121E-05          
MNWQM1           2  1.1934E+04    50.00       0.000       50.00       0.000       1.000       1.000      1.0610E-05          
MNWQM2A          1   6379.        166.7       50.00       166.7       50.00       1.000         N/A         N/A              
MNWQM2B          1   3835.        170.2       50.00       170.2       50.00       1.000         N/A         N/A              
MNWQM3           1   7143.        50.00       0.000       50.00       0.000       1.000         N/A         N/A     COMPOSITE
* Cell-to-well conductance values (CWC) may change during the course of a stress period
 


     7 CALLS TO PCG ROUTINE FOR TIME STEP   1 IN STRESS PERIOD    2
    57 TOTAL ITERATIONS

 HEAD/DRAWDOWN PRINTOUT FLAG = 0     TOTAL BUDGET PRINTOUT FLAG = 0
 CELL-BY-CELL FLOW TERM FLAG = 0
 REUSING PREVIOUS VALUES OF IOFLG
 
 SOLVING FOR HEAD 
     1 CALLS TO PCG ROUTINE FOR TIME STEP   2 IN STRESS PERIOD    2
     1 TOTAL ITERATIONS

 HEAD/DRAWDOWN PRINTOUT FLAG = 0     TOTAL BUDGET PRINTOUT FLAG = 0
 CELL-BY-CELL FLOW TERM FLAG = 0
 REUSING PREVIOUS VALUES OF IOFLG
 
 SOLVING FOR HEAD 
     1 CALLS TO PCG ROUTINE FOR TIME STEP   3 IN STRESS PERIOD    2
     1 TOTAL ITERATIONS

 HEAD/DRAWDOWN PRINTOUT FLAG = 0     TOTAL BUDGET PRINTOUT FLAG = 0
 CELL-BY-CELL FLOW TERM FLAG = 0
 REUSING PREVIOUS VALUES OF IOFLG
 
 SOLVING FOR HEAD 
     1 CALLS TO PCG ROUTINE FOR TIME STEP   4 IN STRESS PERIOD    2
     1 TOTAL ITERATIONS

 HEAD/DRAWDOWN PRINTOUT FLAG = 0     TOTAL BUDGET PRINTOUT FLAG = 0
 CELL-BY-CELL FLOW TERM FLAG = 0
 REUSING PREVIOUS VALUES OF IOFLG
 
 SOLVING FOR HEAD 
     1 CALLS TO PCG ROUTINE FOR TIME STEP   5 IN STRESS PERIOD    2
     1 TOTAL ITERATIONS

 HEAD/DRAWDOWN PRINTOUT FLAG = 0     TOTAL BUDGET PRINTOUT FLAG = 0
 CELL-BY-CELL FLOW TERM FLAG = 0
 REUSING PREVIOUS VALUES OF IOFLG
 
 SOLVING FOR HEAD 
     1 CALLS TO PCG ROUTINE FOR TIME STEP   6 IN STRESS PERIOD    2
     1 TOTAL ITERATIONS

 HEAD/DRAWDOWN PRINTOUT FLAG = 0     TOTAL BUDGET PRINTOUT FLAG = 0
 CELL-BY-CELL FLOW TERM FLAG = 0
 REUSING PREVIOUS VALUES OF IOFLG
 
 SOLVING FOR HEAD 
     1 CALLS TO PCG ROUTINE FOR TIME STEP   7 IN STRESS PERIOD    2
     1 TOTAL ITERATIONS

 HEAD/DRAWDOWN PRINTOUT FLAG = 0     TOTAL BUDGET PRINTOUT FLAG = 0
 CELL-BY-CELL FLOW TERM FLAG = 0
 REUSING PREVIOUS VALUES OF IOFLG
 
 SOLVING FOR HEAD 
     1 CALLS TO PCG ROUTINE FOR TIME STEP   8 IN STRESS PERIOD    2
     1 TOTAL ITERATIONS

 HEAD/DRAWDOWN PRINTOUT FLAG = 0     TOTAL BUDGET PRINTOUT FLAG = 0
 CELL-BY-CELL FLOW TERM FLAG = 0
 REUSING PREVIOUS VALUES OF IOFLG
 
 SOLVING FOR HEAD 
     1 CALLS TO PCG ROUTINE FOR TIME STEP   9 IN STRESS PERIOD    2
     1 TOTAL ITERATIONS

 HEAD/DRAWDOWN PRINTOUT FLAG = 0     TOTAL BUDGET PRINTOUT FLAG = 0
 CELL-BY-CELL FLOW TERM FLAG = 0
 REUSING PREVIOUS VALUES OF IOFLG
 
 SOLVING FOR HEAD 
     1 CALLS TO PCG ROUTINE FOR TIME STEP  10 IN STRESS PERIOD    2
     1 TOTAL ITERATIONS

 HEAD/DRAWDOWN PRINTOUT FLAG = 0     TOTAL BUDGET PRINTOUT FLAG = 0
 CELL-BY-CELL FLOW TERM FLAG = 0
 REUSING PREVIOUS VALUES OF IOFLG
 
 SOLVING FOR HEAD 
     1 CALLS TO PCG ROUTINE FOR TIME STEP  11 IN STRESS PERIOD    2
     1 TOTAL ITERATIONS

 HEAD/DRAWDOWN PRINTOUT FLAG = 0     TOTAL BUDGET PRINTOUT FLAG = 0
 CELL-BY-CELL FLOW TERM FLAG = 0
 REUSING PREVIOUS VALUES OF IOFLG
 
 SOLVING FOR HEAD 
     1 CALLS TO PCG ROUTINE FOR TIME STEP  12 IN STRESS PERIOD    2
     1 TOTAL ITERATIONS

 HEAD/DRAWDOWN PRINTOUT FLAG = 0     TOTAL BUDGET PRINTOUT FLAG = 0
 CELL-BY-CELL FLOW TERM FLAG = 0
 REUSING PREVIOUS VALUES OF IOFLG
 
 SOLVING FOR HEAD 
     1 CALLS TO PCG ROUTINE FOR TIME STEP  13 IN STRESS PERIOD    2
     1 TOTAL ITERATIONS

 HEAD/DRAWDOWN PRINTOUT FLAG = 0     TOTAL BUDGET PRINTOUT FLAG = 0
 CELL-BY-CELL FLOW TERM FLAG = 0
 REUSING PREVIOUS VALUES OF IOFLG
 
 SOLVING FOR HEAD 
     1 CALLS TO PCG ROUTINE FOR TIME STEP  14 IN STRESS PERIOD    2
     1 TOTAL ITERATIONS

 HEAD/DRAWDOWN PRINTOUT FLAG = 0     TOTAL BUDGET PRINTOUT FLAG = 0
 CELL-BY-CELL FLOW TERM FLAG = 0
 REUSING PREVIOUS VALUES OF IOFLG
 
 SOLVING FOR HEAD 
     1 CALLS TO PCG ROUTINE FOR TIME STEP  15 IN STRESS PERIOD    2
     1 TOTAL ITERATIONS

 HEAD/DRAWDOWN PRINTOUT FLAG = 1     TOTAL BUDGET PRINTOUT FLAG = 1
 CELL-BY-CELL FLOW TERM FLAG = 1
 REUSING PREVIOUS VALUES OF IOFLG

 Nodal information for all MNW2 wells, PERIOD =    2  STEP =   15
WELLID                NODE   Lay   Row   Col        Totim        Q-node         hwell         hcell    Seepage elev.
QU1                      1     1     3     3   1.000000E+04 -2.057519E+04  1.658333E+02  1.694420E+02
QU1                      2     2     3     3   1.000000E+04  5.751853E+02  1.658333E+02  1.657851E+02
QU2                      1     2    13     7   1.000000E+04 -6.685000E+04  1.483450E+02  1.528017E+02
MNWQM1                   1     1     3    12   1.000000E+04 -4.205801E+03  1.493846E+02  1.502634E+02
MNWQM1                   2     2     3    12   1.000000E+04 -1.579420E+04  1.493846E+02  1.507081E+02
MNWQM2A                  1     1     6     6   1.000000E+04 -2.840869E+03  1.642313E+02  1.646845E+02
MNWQM2B                  1     1     9     3   1.000000E+04 -2.840869E+03  1.673541E+02  1.681172E+02
MNWQM3                   1     2    15     9   1.000000E+04 -2.971347E+03  1.507740E+02  1.511900E+02

     Summary information for MNW2 wells
WELLID                    Totim            Qin           Qout           Qnet          hwell
QU1                     10000.0       -20575.2        575.185       -20000.0        165.833    
QU2                     10000.0       -66850.0        0.00000       -66850.0        148.345    
MNWQM1                  10000.0       -20000.0        0.00000       -20000.0        149.385    
MNWQM2A                 10000.0       -2840.87        0.00000       -2840.87        164.231    
MNWQM2B                 10000.0       -2840.87        0.00000       -2840.87        167.354    
MNWQM3                  10000.0       -2971.35        0.00000       -2971.35        150.774    
 
 UBUDSV SAVING "            MNW2" ON UNIT 90 AT TIME STEP 15, STRESS PERIOD    2
1
              HEAD IN LAYER   1 AT END OF TIME STEP  15 IN STRESS PERIOD    2
  ---------------------------------------------------------------------------

              1             2             3             4             5             6             7             8             9
             10            11            12            13            14
 ..............................................................................................................................
   1    171.831       171.396       170.565       169.436       167.942       166.178       164.460       162.492       160.249    
        157.979       155.211       151.543       146.469       139.000    
   2    171.721       171.226       170.258       169.149       167.496       165.338       163.879       161.871       159.280    
        157.379       154.778       151.106       145.945       138.000    
   3    171.556       170.945       169.442       168.720       166.764       162.845       162.935       160.832       156.432    
        156.304       154.039       150.263       145.160       137.000    
   4    171.443       170.937       169.944       168.787       167.057       164.779       163.145       160.886       158.020    
        156.065       153.353       149.484       144.261       136.000    
   5    171.288       170.838       169.964       168.740       167.102       165.105       163.025       160.465       157.406    
        155.279       152.284       147.943       143.076       135.000    
   6    171.050       170.607       169.737       168.462       166.777       164.685       162.464       159.444       154.499    
        153.972       150.857       144.503       141.617       134.000    
   7    170.725       170.259       169.331       167.956       166.138       163.969       161.744       159.067       155.917    
        153.727       150.663       146.230       141.295       133.000    
   8    170.339       169.823       168.781       167.234       165.091       162.429       160.492       158.000       154.959    
        152.889       150.033       145.938       140.658       132.000    
   9    169.933       169.349       168.117       166.398       163.691       159.054       158.695       156.236       151.515    
        151.331       148.857       144.386       139.654       131.000    
  10    169.565       168.943       167.677       165.765       163.125       159.936       157.711       155.222       152.374    
        150.411       147.772       143.979       138.748       130.000    
  11    169.264       168.591       167.207       165.049       162.074       158.559       155.634       153.070       150.663    
        148.447       145.872       142.431       137.421       129.000    
  12    169.072       168.345       166.809       164.271       160.407       155.086       151.492       148.919       146.813    
        144.787       142.560       139.645       135.395       128.000    
  13    169.039       168.291       166.673       163.826       158.697       147.432       143.619       141.453       139.994    
        138.379       136.874       134.756       132.064       127.000    
  14    169.188       168.487       167.004       164.546       160.784       155.557       151.963       149.342       147.131    
        144.879       142.350       139.052       134.261       126.000    
  15    169.482       168.864       167.595       165.615       162.892       159.625       156.659       154.011       151.464    
        148.748       145.548       141.356       135.231       125.000    
  16    169.856       169.322       168.248       166.632       164.514       162.038       159.480       156.896       154.183    
        151.146       147.475       142.636       135.599       124.000    
  17    170.247       169.780       168.852       167.477       165.697       163.592       161.263       158.731       155.921    
        152.663       148.654       143.342       135.640       123.000    
  18    170.604       170.186       169.357       168.132       166.542       164.626       162.420       159.915       157.038    
        153.624       149.368       143.705       135.492       122.000    
  19    170.896       170.509       169.742       168.608       167.122       165.306       163.163       160.669       157.743    
        154.218       149.783       143.854       135.233       121.000    
  20    171.100       170.732       170.001       168.916       167.487       165.721       163.610       161.118       158.157    
        154.558       150.001       143.878       134.926       120.000    
  21    171.204       170.845       170.131       169.068       167.663       165.918       163.820       161.327       158.349    
        154.711       150.089       143.851       134.657       119.000    
1
              HEAD IN LAYER   2 AT END OF TIME STEP  15 IN STRESS PERIOD    2
  ---------------------------------------------------------------------------

              1             2             3             4             5             6             7             8             9
             10            11            12            13            14
 ..............................................................................................................................
   1    167.005       166.673       166.022       165.079       163.870       162.441       160.848       159.107       157.255    
        155.350       153.424       151.570       149.984       148.926    
   2    166.936       166.598       165.937       164.981       163.751       162.294       160.694       158.937       157.060    
        155.150       153.205       151.304       149.749       148.696    
   3    166.805       166.459       165.785       164.810       163.548       162.037       160.431       158.643       156.711    
        154.801       152.809       150.708       149.329       148.304    
   4    166.625       166.276       165.591       164.600       163.324       161.809       160.140       158.310       156.364    
        154.407       152.420       150.481       148.902       147.829    
   5    166.393       166.038       165.341       164.328       163.028       161.487       159.762       157.877       155.890    
        153.905       151.906       149.976       148.357       147.265    
   6    166.109       165.742       165.022       163.974       162.633       161.047       159.271       157.333       155.286    
        153.303       151.292       149.330       147.723       146.633    
   7    165.779       165.394       164.639       163.540       162.138       160.493       158.676       156.720       154.684    
        152.674       150.666       148.730       147.081       145.964    
   8    165.421       165.012       164.209       163.040       161.552       159.822       157.965       155.992       153.954    
        151.955       149.968       148.052       146.391       145.257    
   9    165.062       164.624       163.763       162.510       160.912       159.059       157.160       155.161       153.103    
        151.146       149.192       147.295       145.652       144.520    
  10    164.734       164.267       163.345       162.001       160.296       158.344       156.327       154.301       152.280    
        150.319       148.387       146.529       144.900       143.779    
  11    164.471       163.974       162.989       161.541       159.689       157.563       155.386       153.360       151.390    
        149.457       147.558       145.744       144.155       143.064    
  12    164.305       163.784       162.744       161.192       159.159       156.750       154.273       152.386       150.524    
        148.645       146.784       145.012       143.473       142.429    
  13    164.262       163.734       162.672       161.067       158.901       156.142       152.802       151.678       149.985    
        148.135       146.272       144.495       142.968       141.953    
  14    164.350       163.837       162.810       161.274       159.253       156.842       154.336       152.390       150.435    
        148.451       146.459       144.541       142.858       141.709    
  15    164.549       164.066       163.108       161.693       159.869       157.743       155.508       153.364       151.190    
        149.074       146.914       144.808       142.930       141.626    
  16    164.819       164.372       163.488       162.193       160.535       158.598       156.493       154.314       152.063    
        149.766       147.429       145.134       143.070       141.625    
  17    165.116       164.701       163.883       162.685       161.149       159.332       157.304       155.119       152.805    
        150.385       147.898       145.438       143.212       141.648    
  18    165.400       165.011       164.244       163.117       161.664       159.924       157.941       155.755       153.392    
        150.882       148.276       145.682       143.324       141.661    
  19    165.639       165.269       164.537       163.459       162.059       160.365       158.410       156.220       153.821    
        151.246       148.552       145.855       143.392       141.650    
  20    165.810       165.452       164.742       163.693       162.324       160.658       158.717       156.523       154.100    
        151.482       148.728       145.959       143.421       141.617    
  21    165.900       165.547       164.847       163.812       162.458       160.803       158.868       156.672       154.237    
        151.597       148.812       146.006       143.426       141.580    

 HEAD WILL BE SAVED ON UNIT   89 AT END OF TIME STEP   15, STRESS PERIOD    2
1
  VOLUMETRIC BUDGET FOR ENTIRE MODEL AT END OF TIME STEP   15, STRESS PERIOD   2
  ------------------------------------------------------------------------------

     CUMULATIVE VOLUMES      L**3       RATES FOR THIS TIME STEP      L**3/T
     ------------------                 ------------------------

           IN:                                      IN:
           ---                                      ---
             STORAGE =           0.0000               STORAGE =           0.0000
       CONSTANT HEAD =           0.0000         CONSTANT HEAD =           0.0000
               WELLS =           0.0000                 WELLS =           0.0000
              DRAINS =           0.0000                DRAINS =           0.0000
            RECHARGE = 27300000000.0000              RECHARGE =     2730000.0000
                MNW2 =    73947656.3943                  MNW2 =         575.1853
       MANAGED WELLS =           0.0000         MANAGED WELLS =           0.0000

            TOTAL IN = 27373947656.3943              TOTAL IN =     2730575.1853

          OUT:                                     OUT:
          ----                                     ----
             STORAGE =           0.0000               STORAGE =           0.0000
       CONSTANT HEAD = 14515702278.8720         CONSTANT HEAD =     1407688.8551
               WELLS =  4011000000.0000                 WELLS =      401100.0000
              DRAINS =  8095777840.2290                DRAINS =      785707.7937
            RECHARGE =           0.0000              RECHARGE =           0.0000
                MNW2 =   651463078.2216                  MNW2 =      116078.2696
       MANAGED WELLS =   100000000.0000         MANAGED WELLS =       20000.0000

           TOTAL OUT = 27373943197.3226             TOTAL OUT =     2730574.9184

            IN - OUT =        4459.0717              IN - OUT =           0.2669

 PERCENT DISCREPANCY =           0.00     PERCENT DISCREPANCY =           0.00






         TIME SUMMARY AT END OF TIME STEP   15 IN STRESS PERIOD    2
                    SECONDS     MINUTES      HOURS       DAYS        YEARS
                    -----------------------------------------------------------
   TIME STEP LENGTH 1.01679E+08 1.69465E+06  28244.      1176.8      3.2220    
 STRESS PERIOD TIME 4.32000E+08 7.20000E+06 1.20000E+05  5000.0      13.689    
         TOTAL TIME 8.64000E+08 1.44000E+07 2.40000E+05  10000.      27.379    
1
1
                            STRESS PERIOD NO.    3, LENGTH =   60.00000    
                            -----------------------------------------------

                              NUMBER OF TIME STEPS =    15

                               MULTIPLIER FOR DELT =     1.300

                            INITIAL TIME STEP SIZE =  0.3586665    

 REUSING NON-PARAMETER WELLS FROM LAST STRESS PERIOD

      6 WELLS

 REUSING NON-PARAMETER DRAINS FROM LAST STRESS PERIOD

      8 DRAINS

                 RECHARGE =  4.570000E-04

 REUSING NON-PARAMETER SPECIFIED-HEAD DATA FROM LAST STRESS PERIOD


     21 TIME-VARIANT SPECIFIED-HEAD CELLS
 
 MNW2:            6  active wells in stress period            3
 
 
 WELLNAME = QU1                 
MNW2 Well QU1                  active, desired Q = -2.0000E+04 for stress period    3
 
 WELLNAME = QU2                 
 Qlimit < 0 : this well will be constrained
     Hlim =    115.00    
     QCUT =    0
 
MNW2 Well QU2                  active, desired Q = -6.6850E+04 for stress period    3
 
 WELLNAME = MNWQM1              
MNW2 Well MNWQM1               active, desired Q = -2.0000E+04 for stress period    3
 
 WELLNAME = MNWQM2A             
MNW2 Well MNWQM2A              active, desired Q = -2.8409E+03 for stress period    3
 
 WELLNAME = MNWQM2B             
MNW2 Well MNWQM2B              active, desired Q = -2.8409E+03 for stress period    3
 
 WELLNAME = MNWQM3              
MNW2 Well MNWQM3               active, desired Q = -2.9713E+03 for stress period    3

Flows at Managed Wells for Stress Period    3

 Well no.  Layer   Row   Col   Stress Rate
 ----------------------------------------------------
        1      1     6     3    0.000000000000000    
        2      1     9    12   -20000.00000000000    
        3      1    18     4    0.000000000000000    
 ----------------------------------------------------
                      Total:   -20000.00000000000    
 
 SOLVING FOR HEAD 
 
MNW2 Well Conductance and Screen (Open Interval) Data
                              M O D E L  L A Y E R     W E L L  S C R E E N   Penetration    SKIN       CALCULATED
WELLID        Node    CWC*     top_elev    bott.elev    top_elev   bott.elev    fraction     COEFF.          B
QU1              1   5702.        169.4       50.00       169.4       50.00       1.000       1.000      2.2208E-05          
QU1              2  1.1934E+04    50.00       0.000       50.00       0.000       1.000       1.000      1.0610E-05          
QU2              1  1.5000E+04    50.00       0.000       50.00       0.000       1.000         N/A         N/A              
MNWQM1           1   4786.        150.3       50.00       150.3       50.00       1.000       1.000      2.6456E-05          
MNWQM1           2  1.1934E+04    50.00       0.000       50.00       0.000       1.000       1.000      1.0610E-05          
MNWQM2A          1   6268.        164.7       50.00       164.7       50.00       1.000         N/A         N/A              
MNWQM2B          1   3723.        168.1       50.00       168.1       50.00       1.000         N/A         N/A              
MNWQM3           1   7143.        50.00       0.000       50.00       0.000       1.000         N/A         N/A     COMPOSITE
* Cell-to-well conductance values (CWC) may change during the course of a stress period
 


     3 CALLS TO PCG ROUTINE FOR TIME STEP   1 IN STRESS PERIOD    3
     6 TOTAL ITERATIONS

 HEAD/DRAWDOWN PRINTOUT FLAG = 0     TOTAL BUDGET PRINTOUT FLAG = 0
 CELL-BY-CELL FLOW TERM FLAG = 0
 REUSING PREVIOUS VALUES OF IOFLG
 
 SOLVING FOR HEAD 
 
MNW2 Well Conductance and Screen (Open Interval) Data
                              M O D E L  L A Y E R     W E L L  S C R E E N   Penetration    SKIN       CALCULATED
WELLID        Node    CWC*     top_elev    bott.elev    top_elev   bott.elev    fraction     COEFF.          B
QU1              1   5701.        169.4       50.00       169.4       50.00       1.000       1.000      2.2210E-05          
QU1              2  1.1934E+04    50.00       0.000       50.00       0.000       1.000       1.000      1.0610E-05          
QU2              1  1.5000E+04    50.00       0.000       50.00       0.000       1.000         N/A         N/A              
MNWQM1           1   4786.        150.3       50.00       150.3       50.00       1.000       1.000      2.6458E-05          
MNWQM1           2  1.1934E+04    50.00       0.000       50.00       0.000       1.000       1.000      1.0610E-05          
MNWQM2A          1   6268.        164.7       50.00       164.7       50.00       1.000         N/A         N/A              
MNWQM2B          1   3722.        168.1       50.00       168.1       50.00       1.000         N/A         N/A              
MNWQM3           1   7143.        50.00       0.000       50.00       0.000       1.000         N/A         N/A     COMPOSITE
* Cell-to-well conductance values (CWC) may change during the course of a stress period
 
     3 CALLS TO PCG ROUTINE FOR TIME STEP   2 IN STRESS PERIOD    3
     6 TOTAL ITERATIONS

 HEAD/DRAWDOWN PRINTOUT FLAG = 0     TOTAL BUDGET PRINTOUT FLAG = 0
 CELL-BY-CELL FLOW TERM FLAG = 0
 REUSING PREVIOUS VALUES OF IOFLG
 
 SOLVING FOR HEAD 
 
MNW2 Well Conductance and Screen (Open Interval) Data
                              M O D E L  L A Y E R     W E L L  S C R E E N   Penetration    SKIN       CALCULATED
WELLID        Node    CWC*     top_elev    bott.elev    top_elev   bott.elev    fraction     COEFF.          B
QU1              1   5701.        169.4       50.00       169.4       50.00       1.000       1.000      2.2212E-05          
QU1              2  1.1934E+04    50.00       0.000       50.00       0.000       1.000       1.000      1.0610E-05          
QU2              1  1.5000E+04    50.00       0.000       50.00       0.000       1.000         N/A         N/A              
MNWQM1           1   4785.        150.2       50.00       150.2       50.00       1.000       1.000      2.6461E-05          
MNWQM1           2  1.1934E+04    50.00       0.000       50.00       0.000       1.000       1.000      1.0610E-05          
MNWQM2A          1   6267.        164.7       50.00       164.7       50.00       1.000         N/A         N/A              
MNWQM2B          1   3722.        168.1       50.00       168.1       50.00       1.000         N/A         N/A              
MNWQM3           1   7143.        50.00       0.000       50.00       0.000       1.000         N/A         N/A     COMPOSITE
* Cell-to-well conductance values (CWC) may change during the course of a stress period
 
     3 CALLS TO PCG ROUTINE FOR TIME STEP   3 IN STRESS PERIOD    3
     6 TOTAL ITERATIONS

 HEAD/DRAWDOWN PRINTOUT FLAG = 0     TOTAL BUDGET PRINTOUT FLAG = 0
 CELL-BY-CELL FLOW TERM FLAG = 0
 REUSING PREVIOUS VALUES OF IOFLG
 
 SOLVING FOR HEAD 
 
MNW2 Well Conductance and Screen (Open Interval) Data
                              M O D E L  L A Y E R     W E L L  S C R E E N   Penetration    SKIN       CALCULATED
WELLID        Node    CWC*     top_elev    bott.elev    top_elev   bott.elev    fraction     COEFF.          B
QU1              1   5700.        169.4       50.00       169.4       50.00       1.000       1.000      2.2214E-05          
QU1              2  1.1934E+04    50.00       0.000       50.00       0.000       1.000       1.000      1.0610E-05          
QU2              1  1.5000E+04    50.00       0.000       50.00       0.000       1.000         N/A         N/A              
MNWQM1           1   4784.        150.2       50.00       150.2       50.00       1.000       1.000      2.6465E-05          
MNWQM1           2  1.1934E+04    50.00       0.000       50.00       0.000       1.000       1.000      1.0610E-05          
MNWQM2A          1   6266.        164.7       50.00       164.7       50.00       1.000         N/A         N/A              
MNWQM2B          1   3721.        168.1       50.00       168.1       50.00       1.000         N/A         N/A              
MNWQM3           1   7143.        50.00       0.000       50.00       0.000       1.000         N/A         N/A     COMPOSITE
* Cell-to-well conductance values (CWC) may change during the course of a stress period
 
     3 CALLS TO PCG ROUTINE FOR TIME STEP   4 IN STRESS PERIOD    3
     6 TOTAL ITERATIONS

 HEAD/DRAWDOWN PRINTOUT FLAG = 0     TOTAL BUDGET PRINTOUT FLAG = 0
 CELL-BY-CELL FLOW TERM FLAG = 0
 REUSING PREVIOUS VALUES OF IOFLG
 
 SOLVING FOR HEAD 
 
MNW2 Well Conductance and Screen (Open Interval) Data
                              M O D E L  L A Y E R     W E L L  S C R E E N   Penetration    SKIN       CALCULATED
WELLID        Node    CWC*     top_elev    bott.elev    top_elev   bott.elev    fraction     COEFF.          B
QU1              1   5699.        169.4       50.00       169.4       50.00       1.000       1.000      2.2218E-05          
QU1              2  1.1934E+04    50.00       0.000       50.00       0.000       1.000       1.000      1.0610E-05          
QU2              1  1.5000E+04    50.00       0.000       50.00       0.000       1.000         N/A         N/A              
MNWQM1           1   4784.        150.2       50.00       150.2       50.00       1.000       1.000      2.6469E-05          
MNWQM1           2  1.1934E+04    50.00       0.000       50.00       0.000       1.000       1.000      1.0610E-05          
MNWQM2A          1   6265.        164.6       50.00       164.6       50.00       1.000         N/A         N/A              
MNWQM2B          1   3720.        168.1       50.00       168.1       50.00       1.000         N/A         N/A              
MNWQM3           1   7143.        50.00       0.000       50.00       0.000       1.000         N/A         N/A     COMPOSITE
* Cell-to-well conductance values (CWC) may change during the course of a stress period
 
     3 CALLS TO PCG ROUTINE FOR TIME STEP   5 IN STRESS PERIOD    3
     7 TOTAL ITERATIONS

 HEAD/DRAWDOWN PRINTOUT FLAG = 0     TOTAL BUDGET PRINTOUT FLAG = 0
 CELL-BY-CELL FLOW TERM FLAG = 0
 REUSING PREVIOUS VALUES OF IOFLG
 
 SOLVING FOR HEAD 
 
MNW2 Well Conductance and Screen (Open Interval) Data
                              M O D E L  L A Y E R     W E L L  S C R E E N   Penetration    SKIN       CALCULATED
WELLID        Node    CWC*     top_elev    bott.elev    top_elev   bott.elev    fraction     COEFF.          B
QU1              1   5698.        169.4       50.00       169.4       50.00       1.000       1.000      2.2222E-05          
QU1              2  1.1934E+04    50.00       0.000       50.00       0.000       1.000       1.000      1.0610E-05          
QU2              1  1.5000E+04    50.00       0.000       50.00       0.000       1.000         N/A         N/A              
MNWQM1           1   4783.        150.2       50.00       150.2       50.00       1.000       1.000      2.6476E-05          
MNWQM1           2  1.1934E+04    50.00       0.000       50.00       0.000       1.000       1.000      1.0610E-05          
MNWQM2A          1   6264.        164.6       50.00       164.6       50.00       1.000         N/A         N/A              
MNWQM2B          1   3719.        168.0       50.00       168.0       50.00       1.000         N/A         N/A              
MNWQM3           1   7143.        50.00       0.000       50.00       0.000       1.000         N/A         N/A     COMPOSITE
* Cell-to-well conductance values (CWC) may change during the course of a stress period
 
     3 CALLS TO PCG ROUTINE FOR TIME STEP   6 IN STRESS PERIOD    3
     7 TOTAL ITERATIONS

 HEAD/DRAWDOWN PRINTOUT FLAG = 0     TOTAL BUDGET PRINTOUT FLAG = 0
 CELL-BY-CELL FLOW TERM FLAG = 0
 REUSING PREVIOUS VALUES OF IOFLG
 
 SOLVING FOR HEAD 
 
MNW2 Well Conductance and Screen (Open Interval) Data
                              M O D E L  L A Y E R     W E L L  S C R E E N   Penetration    SKIN       CALCULATED
WELLID        Node    CWC*     top_elev    bott.elev    top_elev   bott.elev    fraction     COEFF.          B
QU1              1   5697.        169.3       50.00       169.3       50.00       1.000       1.000      2.2227E-05          
QU1              2  1.1934E+04    50.00       0.000       50.00       0.000       1.000       1.000      1.0610E-05          
QU2              1  1.5000E+04    50.00       0.000       50.00       0.000       1.000         N/A         N/A              
MNWQM1           1   4781.        150.2       50.00       150.2       50.00       1.000       1.000      2.6484E-05          
MNWQM1           2  1.1934E+04    50.00       0.000       50.00       0.000       1.000       1.000      1.0610E-05          
MNWQM2A          1   6262.        164.6       50.00       164.6       50.00       1.000         N/A         N/A              
MNWQM2B          1   3717.        168.0       50.00       168.0       50.00       1.000         N/A         N/A              
MNWQM3           1   7143.        50.00       0.000       50.00       0.000       1.000         N/A         N/A     COMPOSITE
* Cell-to-well conductance values (CWC) may change during the course of a stress period
 
     3 CALLS TO PCG ROUTINE FOR TIME STEP   7 IN STRESS PERIOD    3
     8 TOTAL ITERATIONS

 HEAD/DRAWDOWN PRINTOUT FLAG = 0     TOTAL BUDGET PRINTOUT FLAG = 0
 CELL-BY-CELL FLOW TERM FLAG = 0
 REUSING PREVIOUS VALUES OF IOFLG
 
 SOLVING FOR HEAD 
 
MNW2 Well Conductance and Screen (Open Interval) Data
                              M O D E L  L A Y E R     W E L L  S C R E E N   Penetration    SKIN       CALCULATED
WELLID        Node    CWC*     top_elev    bott.elev    top_elev   bott.elev    fraction     COEFF.          B
QU1              1   5695.        169.3       50.00       169.3       50.00       1.000       1.000      2.2235E-05          
QU1              2  1.1934E+04    50.00       0.000       50.00       0.000       1.000       1.000      1.0610E-05          
QU2              1  1.5000E+04    50.00       0.000       50.00       0.000       1.000         N/A         N/A              
MNWQM1           1   4779.        150.1       50.00       150.1       50.00       1.000       1.000      2.6494E-05          
MNWQM1           2  1.1934E+04    50.00       0.000       50.00       0.000       1.000       1.000      1.0610E-05          
MNWQM2A          1   6260.        164.5       50.00       164.5       50.00       1.000         N/A         N/A              
MNWQM2B          1   3715.        168.0       50.00       168.0       50.00       1.000         N/A         N/A              
MNWQM3           1   7143.        50.00       0.000       50.00       0.000       1.000         N/A         N/A     COMPOSITE
* Cell-to-well conductance values (CWC) may change during the course of a stress period
 
     3 CALLS TO PCG ROUTINE FOR TIME STEP   8 IN STRESS PERIOD    3
     8 TOTAL ITERATIONS

 HEAD/DRAWDOWN PRINTOUT FLAG = 0     TOTAL BUDGET PRINTOUT FLAG = 0
 CELL-BY-CELL FLOW TERM FLAG = 0
 REUSING PREVIOUS VALUES OF IOFLG
 
 SOLVING FOR HEAD 
 
MNW2 Well Conductance and Screen (Open Interval) Data
                              M O D E L  L A Y E R     W E L L  S C R E E N   Penetration    SKIN       CALCULATED
WELLID        Node    CWC*     top_elev    bott.elev    top_elev   bott.elev    fraction     COEFF.          B
QU1              1   5692.        169.2       50.00       169.2       50.00       1.000       1.000      2.2244E-05          
QU1              2  1.1934E+04    50.00       0.000       50.00       0.000       1.000       1.000      1.0610E-05          
QU2              1  1.5000E+04    50.00       0.000       50.00       0.000       1.000         N/A         N/A              
MNWQM1           1   4777.        150.1       50.00       150.1       50.00       1.000       1.000      2.6507E-05          
MNWQM1           2  1.1934E+04    50.00       0.000       50.00       0.000       1.000       1.000      1.0610E-05          
MNWQM2A          1   6257.        164.5       50.00       164.5       50.00       1.000         N/A         N/A              
MNWQM2B          1   3712.        167.9       50.00       167.9       50.00       1.000         N/A         N/A              
MNWQM3           1   7143.        50.00       0.000       50.00       0.000       1.000         N/A         N/A     COMPOSITE
* Cell-to-well conductance values (CWC) may change during the course of a stress period
 
     4 CALLS TO PCG ROUTINE FOR TIME STEP   9 IN STRESS PERIOD    3
    11 TOTAL ITERATIONS

 HEAD/DRAWDOWN PRINTOUT FLAG = 0     TOTAL BUDGET PRINTOUT FLAG = 0
 CELL-BY-CELL FLOW TERM FLAG = 0
 REUSING PREVIOUS VALUES OF IOFLG
 
 SOLVING FOR HEAD 
 
MNW2 Well Conductance and Screen (Open Interval) Data
                              M O D E L  L A Y E R     W E L L  S C R E E N   Penetration    SKIN       CALCULATED
WELLID        Node    CWC*     top_elev    bott.elev    top_elev   bott.elev    fraction     COEFF.          B
QU1              1   5689.        169.2       50.00       169.2       50.00       1.000       1.000      2.2257E-05          
QU1              2  1.1934E+04    50.00       0.000       50.00       0.000       1.000       1.000      1.0610E-05          
QU2              1  1.5000E+04    50.00       0.000       50.00       0.000       1.000         N/A         N/A              
MNWQM1           1   4774.        150.0       50.00       150.0       50.00       1.000       1.000      2.6524E-05          
MNWQM1           2  1.1934E+04    50.00       0.000       50.00       0.000       1.000       1.000      1.0610E-05          
MNWQM2A          1   6254.        164.4       50.00       164.4       50.00       1.000         N/A         N/A              
MNWQM2B          1   3709.        167.9       50.00       167.9       50.00       1.000         N/A         N/A              
MNWQM3           1   7143.        50.00       0.000       50.00       0.000       1.000         N/A         N/A     COMPOSITE
* Cell-to-well conductance values (CWC) may change during the course of a stress period
 
     4 CALLS TO PCG ROUTINE FOR TIME STEP  10 IN STRESS PERIOD    3
    11 TOTAL ITERATIONS

 HEAD/DRAWDOWN PRINTOUT FLAG = 0     TOTAL BUDGET PRINTOUT FLAG = 0
 CELL-BY-CELL FLOW TERM FLAG = 0
 REUSING PREVIOUS VALUES OF IOFLG
 
 SOLVING FOR HEAD 
 
MNW2 Well Conductance and Screen (Open Interval) Data
                              M O D E L  L A Y E R     W E L L  S C R E E N   Penetration    SKIN       CALCULATED
WELLID        Node    CWC*     top_elev    bott.elev    top_elev   bott.elev    fraction     COEFF.          B
QU1              1   5685.        169.1       50.00       169.1       50.00       1.000       1.000      2.2273E-05          
QU1              2  1.1934E+04    50.00       0.000       50.00       0.000       1.000       1.000      1.0610E-05          
QU2              1  1.5000E+04    50.00       0.000       50.00       0.000       1.000         N/A         N/A              
MNWQM1           1   4770.        149.9       50.00       149.9       50.00       1.000       1.000      2.6546E-05          
MNWQM1           2  1.1934E+04    50.00       0.000       50.00       0.000       1.000       1.000      1.0610E-05          
MNWQM2A          1   6249.        164.3       50.00       164.3       50.00       1.000         N/A         N/A              
MNWQM2B          1   3704.        167.8       50.00       167.8       50.00       1.000         N/A         N/A              
MNWQM3           1   7143.        50.00       0.000       50.00       0.000       1.000         N/A         N/A     COMPOSITE
* Cell-to-well conductance values (CWC) may change during the course of a stress period
 
     4 CALLS TO PCG ROUTINE FOR TIME STEP  11 IN STRESS PERIOD    3
    11 TOTAL ITERATIONS

 HEAD/DRAWDOWN PRINTOUT FLAG = 0     TOTAL BUDGET PRINTOUT FLAG = 0
 CELL-BY-CELL FLOW TERM FLAG = 0
 REUSING PREVIOUS VALUES OF IOFLG
 
 SOLVING FOR HEAD 
 
MNW2 Well Conductance and Screen (Open Interval) Data
                              M O D E L  L A Y E R     W E L L  S C R E E N   Penetration    SKIN       CALCULATED
WELLID        Node    CWC*     top_elev    bott.elev    top_elev   bott.elev    fraction     COEFF.          B
QU1              1   5680.        169.0       50.00       169.0       50.00       1.000       1.000      2.2294E-05          
QU1              2  1.1934E+04    50.00       0.000       50.00       0.000       1.000       1.000      1.0610E-05          
QU2              1  1.5000E+04    50.00       0.000       50.00       0.000       1.000         N/A         N/A              
MNWQM1           1   4765.        149.8       50.00       149.8       50.00       1.000       1.000      2.6574E-05          
MNWQM1           2  1.1934E+04    50.00       0.000       50.00       0.000       1.000       1.000      1.0610E-05          
MNWQM2A          1   6243.        164.2       50.00       164.2       50.00       1.000         N/A         N/A              
MNWQM2B          1   3698.        167.7       50.00       167.7       50.00       1.000         N/A         N/A              
MNWQM3           1   7143.        50.00       0.000       50.00       0.000       1.000         N/A         N/A     COMPOSITE
* Cell-to-well conductance values (CWC) may change during the course of a stress period
 
     4 CALLS TO PCG ROUTINE FOR TIME STEP  12 IN STRESS PERIOD    3
    12 TOTAL ITERATIONS

 HEAD/DRAWDOWN PRINTOUT FLAG = 0     TOTAL BUDGET PRINTOUT FLAG = 0
 CELL-BY-CELL FLOW TERM FLAG = 0
 REUSING PREVIOUS VALUES OF IOFLG
 
 SOLVING FOR HEAD 
 
MNW2 Well Conductance and Screen (Open Interval) Data
                              M O D E L  L A Y E R     W E L L  S C R E E N   Penetration    SKIN       CALCULATED
WELLID        Node    CWC*     top_elev    bott.elev    top_elev   bott.elev    fraction     COEFF.          B
QU1              1   5673.        168.8       50.00       168.8       50.00       1.000       1.000      2.2321E-05          
QU1              2  1.1934E+04    50.00       0.000       50.00       0.000       1.000       1.000      1.0610E-05          
QU2              1  1.5000E+04    50.00       0.000       50.00       0.000       1.000         N/A         N/A              
MNWQM1           1   4759.        149.7       50.00       149.7       50.00       1.000       1.000      2.6609E-05          
MNWQM1           2  1.1934E+04    50.00       0.000       50.00       0.000       1.000       1.000      1.0610E-05          
MNWQM2A          1   6235.        164.1       50.00       164.1       50.00       1.000         N/A         N/A              
MNWQM2B          1   3690.        167.5       50.00       167.5       50.00       1.000         N/A         N/A              
MNWQM3           1   7143.        50.00       0.000       50.00       0.000       1.000         N/A         N/A     COMPOSITE
* Cell-to-well conductance values (CWC) may change during the course of a stress period
 
     4 CALLS TO PCG ROUTINE FOR TIME STEP  13 IN STRESS PERIOD    3
    12 TOTAL ITERATIONS

 HEAD/DRAWDOWN PRINTOUT FLAG = 0     TOTAL BUDGET PRINTOUT FLAG = 0
 CELL-BY-CELL FLOW TERM FLAG = 0
 REUSING PREVIOUS VALUES OF IOFLG
 
 SOLVING FOR HEAD 
 
MNW2 Well Conductance and Screen (Open Interval) Data
                              M O D E L  L A Y E R     W E L L  S C R E E N   Penetration    SKIN       CALCULATED
WELLID        Node    CWC*     top_elev    bott.elev    top_elev   bott.elev    fraction     COEFF.          B
QU1              1   5664.        168.6       50.00       168.6       50.00       1.000       1.000      2.2357E-05          
QU1              2  1.1934E+04    50.00       0.000       50.00       0.000       1.000       1.000      1.0610E-05          
QU2              1  1.5000E+04    50.00       0.000       50.00       0.000       1.000         N/A         N/A              
MNWQM1           1   4751.        149.5       50.00       149.5       50.00       1.000       1.000      2.6654E-05          
MNWQM1           2  1.1934E+04    50.00       0.000       50.00       0.000       1.000       1.000      1.0610E-05          
MNWQM2A          1   6225.        163.9       50.00       163.9       50.00       1.000         N/A         N/A              
MNWQM2B          1   3679.        167.3       50.00       167.3       50.00       1.000         N/A         N/A              
MNWQM3           1   7143.        50.00       0.000       50.00       0.000       1.000         N/A         N/A     COMPOSITE
* Cell-to-well conductance values (CWC) may change during the course of a stress period
 
     4 CALLS TO PCG ROUTINE FOR TIME STEP  14 IN STRESS PERIOD    3
    13 TOTAL ITERATIONS

 HEAD/DRAWDOWN PRINTOUT FLAG = 0     TOTAL BUDGET PRINTOUT FLAG = 0
 CELL-BY-CELL FLOW TERM FLAG = 0
 REUSING PREVIOUS VALUES OF IOFLG
 
 SOLVING FOR HEAD 
 
MNW2 Well Conductance and Screen (Open Interval) Data
                              M O D E L  L A Y E R     W E L L  S C R E E N   Penetration    SKIN       CALCULATED
WELLID        Node    CWC*     top_elev    bott.elev    top_elev   bott.elev    fraction     COEFF.          B
QU1              1   5652.        168.4       50.00       168.4       50.00       1.000       1.000      2.2403E-05          
QU1              2  1.1934E+04    50.00       0.000       50.00       0.000       1.000       1.000      1.0610E-05          
QU2              1  1.5000E+04    50.00       0.000       50.00       0.000       1.000         N/A         N/A              
MNWQM1           1   4741.        149.3       50.00       149.3       50.00       1.000       1.000      2.6709E-05          
MNWQM1           2  1.1934E+04    50.00       0.000       50.00       0.000       1.000       1.000      1.0610E-05          
MNWQM2A          1   6211.        163.6       50.00       163.6       50.00       1.000         N/A         N/A              
MNWQM2B          1   3666.        167.1       50.00       167.1       50.00       1.000         N/A         N/A              
MNWQM3           1   7143.        50.00       0.000       50.00       0.000       1.000         N/A         N/A     COMPOSITE
* Cell-to-well conductance values (CWC) may change during the course of a stress period
 
     4 CALLS TO PCG ROUTINE FOR TIME STEP  15 IN STRESS PERIOD    3
    14 TOTAL ITERATIONS

 HEAD/DRAWDOWN PRINTOUT FLAG = 1     TOTAL BUDGET PRINTOUT FLAG = 1
 CELL-BY-CELL FLOW TERM FLAG = 1
 REUSING PREVIOUS VALUES OF IOFLG

 Nodal information for all MNW2 wells, PERIOD =    3  STEP =   15
WELLID                NODE   Lay   Row   Col        Totim        Q-node         hwell         hcell    Seepage elev.
QU1                      1     1     3     3   1.006000E+04 -2.029948E+04  1.644822E+02  1.680835E+02
QU1                      2     2     3     3   1.006000E+04  2.994816E+02  1.644822E+02  1.644571E+02
QU2                      1     2    13     7   1.006000E+04 -6.685000E+04  1.471463E+02  1.516030E+02
MNWQM1                   1     1     3    12   1.006000E+04 -3.721587E+03  1.482715E+02  1.490585E+02
MNWQM1                   2     2     3    12   1.006000E+04 -1.627841E+04  1.482715E+02  1.496356E+02
MNWQM2A                  1     1     6     6   1.006000E+04 -2.840869E+03  1.628699E+02  1.633285E+02
MNWQM2B                  1     1     9     3   1.006000E+04 -2.840869E+03  1.659792E+02  1.667579E+02
MNWQM3                   1     2    15     9   1.006000E+04 -2.971347E+03  1.496075E+02  1.500235E+02

     Summary information for MNW2 wells
WELLID                    Totim            Qin           Qout           Qnet          hwell
QU1                     10060.0       -20299.5        299.482       -20000.0        164.482    
QU2                     10060.0       -66850.0        0.00000       -66850.0        147.146    
MNWQM1                  10060.0       -20000.0        0.00000       -20000.0        148.272    
MNWQM2A                 10060.0       -2840.87        0.00000       -2840.87        162.870    
MNWQM2B                 10060.0       -2840.87        0.00000       -2840.87        165.979    
MNWQM3                  10060.0       -2971.35        0.00000       -2971.35        149.608    
 
 UBUDSV SAVING "            MNW2" ON UNIT 90 AT TIME STEP 15, STRESS PERIOD    3
1
              HEAD IN LAYER   1 AT END OF TIME STEP  15 IN STRESS PERIOD    3
  ---------------------------------------------------------------------------

              1             2             3             4             5             6             7             8             9
             10            11            12            13            14
 ..............................................................................................................................
   1    170.469       170.035       169.205       168.077       166.584       164.821       163.106       161.142       158.904    
        156.645       153.905       150.324       145.536       139.000    
   2    170.360       169.865       168.898       167.790       166.137       163.978       162.524       160.519       157.931    
        156.044       153.473       149.889       145.011       138.000    
   3    170.195       169.584       168.083       167.360       165.402       161.464       161.576       159.477       155.060    
        154.966       152.735       149.059       144.225       137.000    
   4    170.082       169.577       168.584       167.428       165.698       163.419       161.790       159.534       156.671    
        154.730       152.048       148.264       143.322       136.000    
   5    169.927       169.478       168.604       167.382       165.744       163.749       161.672       159.115       156.057    
        153.944       150.977       146.716       142.133       135.000    
   6    169.689       169.247       168.377       167.103       165.420       163.329       161.111       158.091       153.128    
        152.634       149.546       143.250       140.669       134.000    
   7    169.365       168.899       167.971       166.598       164.781       162.614       160.392       157.718       154.569    
        152.394       149.356       145.000       140.347       133.000    
   8    168.979       168.463       167.422       165.877       163.734       161.071       159.140       156.653       153.613    
        151.558       148.728       144.712       139.710       132.000    
   9    168.573       167.990       166.758       165.041       162.332       157.677       157.342       154.888       150.149    
        149.999       147.552       143.154       138.703       131.000    
  10    168.205       167.584       166.319       164.410       161.773       158.587       156.370       153.886       151.040    
        149.090       146.476       142.759       137.801       130.000    
  11    167.904       167.233       165.851       163.698       160.733       157.235       154.320       151.763       149.361    
        147.154       144.602       141.235       136.487       129.000    
  12    167.713       166.988       165.455       162.927       159.091       153.837       150.270       147.708       145.609    
        143.591       141.385       138.534       134.521       128.000    
  13    167.680       166.934       165.320       162.490       157.428       146.470       142.726       140.580       139.134    
        137.529       136.044       133.973       131.444       127.000    
  14    167.829       167.129       165.650       163.202       159.468       154.308       150.741       148.130       145.926    
        143.683       141.174       137.939       133.382       126.000    
  15    168.122       167.506       166.239       164.263       161.551       158.301       155.345       152.704       150.163    
        147.455       144.277       140.156       134.285       125.000    
  16    168.496       167.963       166.890       165.277       163.163       160.693       158.140       155.560       152.854    
        149.826       146.179       141.413       134.633       124.000    
  17    168.887       168.421       167.493       166.120       164.343       162.241       159.915       157.387       154.583    
        151.335       147.350       142.112       134.667       123.000    
  18    169.244       168.826       167.998       166.774       165.186       163.272       161.069       158.568       155.697    
        152.292       148.061       142.471       134.514       122.000    
  19    169.535       169.149       168.383       167.249       165.765       163.951       161.811       159.321       156.400    
        152.885       148.475       142.618       134.251       121.000    
  20    169.739       169.371       168.641       167.557       166.130       164.365       162.257       159.769       156.814    
        153.225       148.692       142.641       133.940       120.000    
  21    169.843       169.484       168.771       167.709       166.305       164.563       162.467       159.977       157.005    
        153.378       148.780       142.614       133.669       119.000    
1
              HEAD IN LAYER   2 AT END OF TIME STEP  15 IN STRESS PERIOD    3
  ---------------------------------------------------------------------------

              1             2             3             4             5             6             7             8             9
             10            11            12            13            14
 ..............................................................................................................................
   1    165.676       165.346       164.699       163.762       162.564       161.148       159.572       157.855       156.033    
        154.167       152.294       150.506       149.000       148.019    
   2    165.607       165.270       164.612       163.664       162.445       161.001       159.419       157.685       155.838    
        153.968       152.073       150.238       148.764       147.788    
   3    165.477       165.131       164.457       163.493       162.242       160.745       159.156       157.391       155.489    
        153.619       151.677       149.636       148.343       147.396    
   4    165.298       164.950       164.269       163.286       162.020       160.518       158.868       157.060       155.144    
        153.227       151.292       149.417       147.920       146.923    
   5    165.068       164.715       164.022       163.016       161.726       160.198       158.491       156.630       154.673    
        152.728       150.781       148.917       147.378       146.363    
   6    164.786       164.421       163.706       162.665       161.334       159.761       158.004       156.089       154.072    
        152.130       150.171       148.275       146.748       145.734    
   7    164.458       164.076       163.325       162.233       160.842       159.211       157.413       155.481       153.476    
        151.506       149.550       147.680       146.111       145.069    
   8    164.102       163.696       162.898       161.737       160.260       158.544       156.707       154.758       152.752    
        150.793       148.858       147.008       145.426       144.367    
   9    163.745       163.311       162.455       161.211       159.625       157.788       155.909       153.935       151.908    
        149.992       148.090       146.259       144.694       143.637    
  10    163.420       162.956       162.041       160.707       159.015       157.081       155.086       153.086       151.097    
        149.177       147.296       145.502       143.951       142.903    
  11    163.159       162.665       161.688       160.252       158.416       156.311       154.158       152.159       150.223    
        148.330       146.481       144.730       143.216       142.196    
  12    162.994       162.477       161.446       159.907       157.894       155.510       153.061       151.203       149.375    
        147.535       145.724       144.013       142.545       141.570    
  13    162.953       162.428       161.375       159.785       157.641       154.914       151.603       150.509       148.850    
        147.041       145.227       143.509       142.050       141.098    
  14    163.040       162.531       161.512       159.990       157.989       155.603       153.124       151.207       149.286    
        147.342       145.399       143.541       141.930       140.850    
  15    163.238       162.759       161.808       160.404       158.597       156.493       154.281       152.165       150.024    
        147.947       145.837       143.793       141.990       140.759    
  16    163.506       163.062       162.185       160.900       159.256       157.337       155.254       153.101       150.882    
        148.626       146.339       144.107       142.119       140.749    
  17    163.802       163.390       162.578       161.389       159.865       158.064       156.056       153.897       151.614    
        149.234       146.797       144.401       142.253       140.764    
  18    164.085       163.698       162.936       161.818       160.376       158.651       156.687       154.525       152.193    
        149.723       147.168       144.638       142.358       140.772    
  19    164.322       163.955       163.227       162.157       160.768       159.089       157.152       154.986       152.618    
        150.082       147.439       144.806       142.422       140.756    
  20    164.493       164.137       163.431       162.390       161.032       159.379       157.456       155.286       152.894    
        150.315       147.612       144.908       142.448       140.720    
  21    164.582       164.231       163.536       162.508       161.164       159.523       157.606       155.434       153.029    
        150.429       147.695       144.953       142.451       140.682    

 HEAD WILL BE SAVED ON UNIT   89 AT END OF TIME STEP   15, STRESS PERIOD    3
1
  VOLUMETRIC BUDGET FOR ENTIRE MODEL AT END OF TIME STEP   15, STRESS PERIOD   3
  ------------------------------------------------------------------------------

     CUMULATIVE VOLUMES      L**3       RATES FOR THIS TIME STEP      L**3/T
     ------------------                 ------------------------

           IN:                                      IN:
           ---                                      ---
             STORAGE =   109927763.6551               STORAGE =     1757654.7472
       CONSTANT HEAD =           0.0000         CONSTANT HEAD =           0.0000
               WELLS =           0.0000                 WELLS =           0.0000
              DRAINS =           0.0000                DRAINS =           0.0000
            RECHARGE = 27346785375.0000              RECHARGE =      779756.2500
                MNW2 =    73972233.2957                  MNW2 =         299.4816
       MANAGED WELLS =           0.0000         MANAGED WELLS =           0.0000

            TOTAL IN = 27530685371.9508              TOTAL IN =     2537710.4788

          OUT:                                     OUT:
          ----                                     ----
             STORAGE =           0.0000               STORAGE =           0.0000
       CONSTANT HEAD = 14595559971.5214         CONSTANT HEAD =     1281800.7185
               WELLS =  4035066000.0000                 WELLS =      401100.0000
              DRAINS =  8140437155.3807                DRAINS =      719008.1023
            RECHARGE =           0.0000              RECHARGE =           0.0000
                MNW2 =   658417840.1850                  MNW2 =      115802.5659
       MANAGED WELLS =   101200000.0000         MANAGED WELLS =       20000.0000

           TOTAL OUT = 27530680967.0870             TOTAL OUT =     2537711.3867

            IN - OUT =        4404.8639              IN - OUT =          -0.9079

 PERCENT DISCREPANCY =           0.00     PERCENT DISCREPANCY =           0.00






         TIME SUMMARY AT END OF TIME STEP   15 IN STRESS PERIOD    3
                    SECONDS     MINUTES      HOURS       DAYS        YEARS
                    -----------------------------------------------------------
   TIME STEP LENGTH 1.22015E+06  20336.      338.93      14.122     3.86641E-02
 STRESS PERIOD TIME 5.18400E+06  86400.      1440.0      60.000     0.16427    
         TOTAL TIME 8.69184E+08 1.44864E+07 2.41440E+05  10060.      27.543    
1
1
                            STRESS PERIOD NO.    4, LENGTH =   180.0000    
                            -----------------------------------------------

                              NUMBER OF TIME STEPS =    15

                               MULTIPLIER FOR DELT =     1.300

                            INITIAL TIME STEP SIZE =   1.076000    

 REUSING NON-PARAMETER WELLS FROM LAST STRESS PERIOD

      6 WELLS

 REUSING NON-PARAMETER DRAINS FROM LAST STRESS PERIOD

      8 DRAINS

                 RECHARGE =   0.00000    

 REUSING NON-PARAMETER SPECIFIED-HEAD DATA FROM LAST STRESS PERIOD


     21 TIME-VARIANT SPECIFIED-HEAD CELLS
 
 MNW2:            5  active wells in stress period            4
 
 
 WELLNAME = QU1                 
MNW2 Well QU1                  active, desired Q = -2.0000E+04 for stress period    4
 
 WELLNAME = QU2                 
 Qlimit < 0 : this well will be constrained
     Hlim =    115.00    
     QCUT =    0
 
MNW2 Well QU2                  active, desired Q = -6.6850E+04 for stress period    4
 
 WELLNAME = MNWQM2A             
MNW2 Well MNWQM2A              active, desired Q = -2.8409E+03 for stress period    4
 
 WELLNAME = MNWQM2B             
MNW2 Well MNWQM2B              active, desired Q = -2.8409E+03 for stress period    4
 
 WELLNAME = MNWQM3              
MNW2 Well MNWQM3               active, desired Q = -2.9713E+03 for stress period    4

Flows at Managed Wells for Stress Period    4

 Well no.  Layer   Row   Col   Stress Rate
 ----------------------------------------------------
        1      1     9    12   -20000.00000000000    
        2      1    18     4    0.000000000000000    
 ----------------------------------------------------
                      Total:   -20000.00000000000    
 
 SOLVING FOR HEAD 
 
MNW2 Well Conductance and Screen (Open Interval) Data
                              M O D E L  L A Y E R     W E L L  S C R E E N   Penetration    SKIN       CALCULATED
WELLID        Node    CWC*     top_elev    bott.elev    top_elev   bott.elev    fraction     COEFF.          B
QU1              1   5637.        168.1       50.00       168.1       50.00       1.000       1.000      2.2464E-05          
QU1              2  1.1934E+04    50.00       0.000       50.00       0.000       1.000       1.000      1.0610E-05          
QU2              1  1.5000E+04    50.00       0.000       50.00       0.000       1.000         N/A         N/A              
MNWQM2A          1   6194.        163.3       50.00       163.3       50.00       1.000         N/A         N/A              
MNWQM2B          1   3649.        166.8       50.00       166.8       50.00       1.000         N/A         N/A              
MNWQM3           1   7143.        50.00       0.000       50.00       0.000       1.000         N/A         N/A     COMPOSITE
* Cell-to-well conductance values (CWC) may change during the course of a stress period
 


     4 CALLS TO PCG ROUTINE FOR TIME STEP   1 IN STRESS PERIOD    4
    13 TOTAL ITERATIONS

 HEAD/DRAWDOWN PRINTOUT FLAG = 0     TOTAL BUDGET PRINTOUT FLAG = 0
 CELL-BY-CELL FLOW TERM FLAG = 0
 REUSING PREVIOUS VALUES OF IOFLG
 
 SOLVING FOR HEAD 
 
MNW2 Well Conductance and Screen (Open Interval) Data
                              M O D E L  L A Y E R     W E L L  S C R E E N   Penetration    SKIN       CALCULATED
WELLID        Node    CWC*     top_elev    bott.elev    top_elev   bott.elev    fraction     COEFF.          B
QU1              1   5635.        168.0       50.00       168.0       50.00       1.000       1.000      2.2470E-05          
QU1              2  1.1934E+04    50.00       0.000       50.00       0.000       1.000       1.000      1.0610E-05          
QU2              1  1.5000E+04    50.00       0.000       50.00       0.000       1.000         N/A         N/A              
MNWQM2A          1   6192.        163.3       50.00       163.3       50.00       1.000         N/A         N/A              
MNWQM2B          1   3647.        166.7       50.00       166.7       50.00       1.000         N/A         N/A              
MNWQM3           1   7143.        50.00       0.000       50.00       0.000       1.000         N/A         N/A     COMPOSITE
* Cell-to-well conductance values (CWC) may change during the course of a stress period
 
     4 CALLS TO PCG ROUTINE FOR TIME STEP   2 IN STRESS PERIOD    4
    11 TOTAL ITERATIONS

 HEAD/DRAWDOWN PRINTOUT FLAG = 0     TOTAL BUDGET PRINTOUT FLAG = 0
 CELL-BY-CELL FLOW TERM FLAG = 0
 REUSING PREVIOUS VALUES OF IOFLG
 
 SOLVING FOR HEAD 
 
MNW2 Well Conductance and Screen (Open Interval) Data
                              M O D E L  L A Y E R     W E L L  S C R E E N   Penetration    SKIN       CALCULATED
WELLID        Node    CWC*     top_elev    bott.elev    top_elev   bott.elev    fraction     COEFF.          B
QU1              1   5633.        168.0       50.00       168.0       50.00       1.000       1.000      2.2478E-05          
QU1              2  1.1934E+04    50.00       0.000       50.00       0.000       1.000       1.000      1.0610E-05          
QU2              1  1.5000E+04    50.00       0.000       50.00       0.000       1.000         N/A         N/A              
MNWQM2A          1   6190.        163.3       50.00       163.3       50.00       1.000         N/A         N/A              
MNWQM2B          1   3644.        166.7       50.00       166.7       50.00       1.000         N/A         N/A              
MNWQM3           1   7143.        50.00       0.000       50.00       0.000       1.000         N/A         N/A     COMPOSITE
* Cell-to-well conductance values (CWC) may change during the course of a stress period
 
     3 CALLS TO PCG ROUTINE FOR TIME STEP   3 IN STRESS PERIOD    4
     8 TOTAL ITERATIONS

 HEAD/DRAWDOWN PRINTOUT FLAG = 0     TOTAL BUDGET PRINTOUT FLAG = 0
 CELL-BY-CELL FLOW TERM FLAG = 0
 REUSING PREVIOUS VALUES OF IOFLG
 
 SOLVING FOR HEAD 
 
MNW2 Well Conductance and Screen (Open Interval) Data
                              M O D E L  L A Y E R     W E L L  S C R E E N   Penetration    SKIN       CALCULATED
WELLID        Node    CWC*     top_elev    bott.elev    top_elev   bott.elev    fraction     COEFF.          B
QU1              1   5630.        167.9       50.00       167.9       50.00       1.000       1.000      2.2489E-05          
QU1              2  1.1934E+04    50.00       0.000       50.00       0.000       1.000       1.000      1.0610E-05          
QU2              1  1.5000E+04    50.00       0.000       50.00       0.000       1.000         N/A         N/A              
MNWQM2A          1   6187.        163.2       50.00       163.2       50.00       1.000         N/A         N/A              
MNWQM2B          1   3641.        166.6       50.00       166.6       50.00       1.000         N/A         N/A              
MNWQM3           1   7143.        50.00       0.000       50.00       0.000       1.000         N/A         N/A     COMPOSITE
* Cell-to-well conductance values (CWC) may change during the course of a stress period
 
     3 CALLS TO PCG ROUTINE FOR TIME STEP   4 IN STRESS PERIOD    4
     8 TOTAL ITERATIONS

 HEAD/DRAWDOWN PRINTOUT FLAG = 0     TOTAL BUDGET PRINTOUT FLAG = 0
 CELL-BY-CELL FLOW TERM FLAG = 0
 REUSING PREVIOUS VALUES OF IOFLG
 
 SOLVING FOR HEAD 
 
MNW2 Well Conductance and Screen (Open Interval) Data
                              M O D E L  L A Y E R     W E L L  S C R E E N   Penetration    SKIN       CALCULATED
WELLID        Node    CWC*     top_elev    bott.elev    top_elev   bott.elev    fraction     COEFF.          B
QU1              1   5627.        167.9       50.00       167.9       50.00       1.000       1.000      2.2503E-05          
QU1              2  1.1934E+04    50.00       0.000       50.00       0.000       1.000       1.000      1.0610E-05          
QU2              1  1.5000E+04    50.00       0.000       50.00       0.000       1.000         N/A         N/A              
MNWQM2A          1   6183.        163.1       50.00       163.1       50.00       1.000         N/A         N/A              
MNWQM2B          1   3637.        166.5       50.00       166.5       50.00       1.000         N/A         N/A              
MNWQM3           1   7143.        50.00       0.000       50.00       0.000       1.000         N/A         N/A     COMPOSITE
* Cell-to-well conductance values (CWC) may change during the course of a stress period
 
     3 CALLS TO PCG ROUTINE FOR TIME STEP   5 IN STRESS PERIOD    4
     9 TOTAL ITERATIONS

 HEAD/DRAWDOWN PRINTOUT FLAG = 0     TOTAL BUDGET PRINTOUT FLAG = 0
 CELL-BY-CELL FLOW TERM FLAG = 0
 REUSING PREVIOUS VALUES OF IOFLG
 
 SOLVING FOR HEAD 
 
MNW2 Well Conductance and Screen (Open Interval) Data
                              M O D E L  L A Y E R     W E L L  S C R E E N   Penetration    SKIN       CALCULATED
WELLID        Node    CWC*     top_elev    bott.elev    top_elev   bott.elev    fraction     COEFF.          B
QU1              1   5622.        167.8       50.00       167.8       50.00       1.000       1.000      2.2522E-05          
QU1              2  1.1934E+04    50.00       0.000       50.00       0.000       1.000       1.000      1.0610E-05          
QU2              1  1.5000E+04    50.00       0.000       50.00       0.000       1.000         N/A         N/A              
MNWQM2A          1   6177.        163.0       50.00       163.0       50.00       1.000         N/A         N/A              
MNWQM2B          1   3632.        166.5       50.00       166.5       50.00       1.000         N/A         N/A              
MNWQM3           1   7143.        50.00       0.000       50.00       0.000       1.000         N/A         N/A     COMPOSITE
* Cell-to-well conductance values (CWC) may change during the course of a stress period
 
     4 CALLS TO PCG ROUTINE FOR TIME STEP   6 IN STRESS PERIOD    4
    12 TOTAL ITERATIONS

 HEAD/DRAWDOWN PRINTOUT FLAG = 0     TOTAL BUDGET PRINTOUT FLAG = 0
 CELL-BY-CELL FLOW TERM FLAG = 0
 REUSING PREVIOUS VALUES OF IOFLG
 
 SOLVING FOR HEAD 
 
MNW2 Well Conductance and Screen (Open Interval) Data
                              M O D E L  L A Y E R     W E L L  S C R E E N   Penetration    SKIN       CALCULATED
WELLID        Node    CWC*     top_elev    bott.elev    top_elev   bott.elev    fraction     COEFF.          B
QU1              1   5616.        167.7       50.00       167.7       50.00       1.000       1.000      2.2546E-05          
QU1              2  1.1934E+04    50.00       0.000       50.00       0.000       1.000       1.000      1.0610E-05          
QU2              1  1.5000E+04    50.00       0.000       50.00       0.000       1.000         N/A         N/A              
MNWQM2A          1   6170.        162.9       50.00       162.9       50.00       1.000         N/A         N/A              
MNWQM2B          1   3625.        166.3       50.00       166.3       50.00       1.000         N/A         N/A              
MNWQM3           1   7143.        50.00       0.000       50.00       0.000       1.000         N/A         N/A     COMPOSITE
* Cell-to-well conductance values (CWC) may change during the course of a stress period
 
     4 CALLS TO PCG ROUTINE FOR TIME STEP   7 IN STRESS PERIOD    4
    12 TOTAL ITERATIONS

 HEAD/DRAWDOWN PRINTOUT FLAG = 0     TOTAL BUDGET PRINTOUT FLAG = 0
 CELL-BY-CELL FLOW TERM FLAG = 0
 REUSING PREVIOUS VALUES OF IOFLG
 
 SOLVING FOR HEAD 
 
MNW2 Well Conductance and Screen (Open Interval) Data
                              M O D E L  L A Y E R     W E L L  S C R E E N   Penetration    SKIN       CALCULATED
WELLID        Node    CWC*     top_elev    bott.elev    top_elev   bott.elev    fraction     COEFF.          B
QU1              1   5608.        167.5       50.00       167.5       50.00       1.000       1.000      2.2577E-05          
QU1              2  1.1934E+04    50.00       0.000       50.00       0.000       1.000       1.000      1.0610E-05          
QU2              1  1.5000E+04    50.00       0.000       50.00       0.000       1.000         N/A         N/A              
MNWQM2A          1   6162.        162.7       50.00       162.7       50.00       1.000         N/A         N/A              
MNWQM2B          1   3616.        166.2       50.00       166.2       50.00       1.000         N/A         N/A              
MNWQM3           1   7143.        50.00       0.000       50.00       0.000       1.000         N/A         N/A     COMPOSITE
* Cell-to-well conductance values (CWC) may change during the course of a stress period
 
     4 CALLS TO PCG ROUTINE FOR TIME STEP   8 IN STRESS PERIOD    4
    12 TOTAL ITERATIONS

 HEAD/DRAWDOWN PRINTOUT FLAG = 0     TOTAL BUDGET PRINTOUT FLAG = 0
 CELL-BY-CELL FLOW TERM FLAG = 0
 REUSING PREVIOUS VALUES OF IOFLG
 
 SOLVING FOR HEAD 
 
MNW2 Well Conductance and Screen (Open Interval) Data
                              M O D E L  L A Y E R     W E L L  S C R E E N   Penetration    SKIN       CALCULATED
WELLID        Node    CWC*     top_elev    bott.elev    top_elev   bott.elev    fraction     COEFF.          B
QU1              1   5598.        167.3       50.00       167.3       50.00       1.000       1.000      2.2618E-05          
QU1              2  1.1934E+04    50.00       0.000       50.00       0.000       1.000       1.000      1.0610E-05          
QU2              1  1.5000E+04    50.00       0.000       50.00       0.000       1.000         N/A         N/A              
MNWQM2A          1   6150.        162.5       50.00       162.5       50.00       1.000         N/A         N/A              
MNWQM2B          1   3605.        166.0       50.00       166.0       50.00       1.000         N/A         N/A              
MNWQM3           1   7143.        50.00       0.000       50.00       0.000       1.000         N/A         N/A     COMPOSITE
* Cell-to-well conductance values (CWC) may change during the course of a stress period
 
     4 CALLS TO PCG ROUTINE FOR TIME STEP   9 IN STRESS PERIOD    4
    13 TOTAL ITERATIONS

 HEAD/DRAWDOWN PRINTOUT FLAG = 0     TOTAL BUDGET PRINTOUT FLAG = 0
 CELL-BY-CELL FLOW TERM FLAG = 0
 REUSING PREVIOUS VALUES OF IOFLG
 
 SOLVING FOR HEAD 
 
MNW2 Well Conductance and Screen (Open Interval) Data
                              M O D E L  L A Y E R     W E L L  S C R E E N   Penetration    SKIN       CALCULATED
WELLID        Node    CWC*     top_elev    bott.elev    top_elev   bott.elev    fraction     COEFF.          B
QU1              1   5585.        167.0       50.00       167.0       50.00       1.000       1.000      2.2671E-05          
QU1              2  1.1934E+04    50.00       0.000       50.00       0.000       1.000       1.000      1.0610E-05          
QU2              1  1.5000E+04    50.00       0.000       50.00       0.000       1.000         N/A         N/A              
MNWQM2A          1   6135.        162.3       50.00       162.3       50.00       1.000         N/A         N/A              
MNWQM2B          1   3590.        165.7       50.00       165.7       50.00       1.000         N/A         N/A              
MNWQM3           1   7143.        50.00       0.000       50.00       0.000       1.000         N/A         N/A     COMPOSITE
* Cell-to-well conductance values (CWC) may change during the course of a stress period
 
     4 CALLS TO PCG ROUTINE FOR TIME STEP  10 IN STRESS PERIOD    4
    15 TOTAL ITERATIONS

 HEAD/DRAWDOWN PRINTOUT FLAG = 0     TOTAL BUDGET PRINTOUT FLAG = 0
 CELL-BY-CELL FLOW TERM FLAG = 0
 REUSING PREVIOUS VALUES OF IOFLG
 
 SOLVING FOR HEAD 
 
MNW2 Well Conductance and Screen (Open Interval) Data
                              M O D E L  L A Y E R     W E L L  S C R E E N   Penetration    SKIN       CALCULATED
WELLID        Node    CWC*     top_elev    bott.elev    top_elev   bott.elev    fraction     COEFF.          B
QU1              1   5568.        166.7       50.00       166.7       50.00       1.000       1.000      2.2740E-05          
QU1              2  1.1934E+04    50.00       0.000       50.00       0.000       1.000       1.000      1.0610E-05          
QU2              1  1.5000E+04    50.00       0.000       50.00       0.000       1.000         N/A         N/A              
MNWQM2A          1   6116.        161.9       50.00       161.9       50.00       1.000         N/A         N/A              
MNWQM2B          1   3570.        165.3       50.00       165.3       50.00       1.000         N/A         N/A              
MNWQM3           1   7143.        50.00       0.000       50.00       0.000       1.000         N/A         N/A     COMPOSITE
* Cell-to-well conductance values (CWC) may change during the course of a stress period
 
     4 CALLS TO PCG ROUTINE FOR TIME STEP  11 IN STRESS PERIOD    4
    15 TOTAL ITERATIONS

 HEAD/DRAWDOWN PRINTOUT FLAG = 0     TOTAL BUDGET PRINTOUT FLAG = 0
 CELL-BY-CELL FLOW TERM FLAG = 0
 REUSING PREVIOUS VALUES OF IOFLG
 
 SOLVING FOR HEAD 
 
MNW2 Well Conductance and Screen (Open Interval) Data
                              M O D E L  L A Y E R     W E L L  S C R E E N   Penetration    SKIN       CALCULATED
WELLID        Node    CWC*     top_elev    bott.elev    top_elev   bott.elev    fraction     COEFF.          B
QU1              1   5546.        166.2       50.00       166.2       50.00       1.000       1.000      2.2830E-05          
QU1              2  1.1934E+04    50.00       0.000       50.00       0.000       1.000       1.000      1.0610E-05          
QU2              1  1.5000E+04    50.00       0.000       50.00       0.000       1.000         N/A         N/A              
MNWQM2A          1   6091.        161.4       50.00       161.4       50.00       1.000         N/A         N/A              
MNWQM2B          1   3545.        164.9       50.00       164.9       50.00       1.000         N/A         N/A              
MNWQM3           1   7143.        50.00       0.000       50.00       0.000       1.000         N/A         N/A     COMPOSITE
* Cell-to-well conductance values (CWC) may change during the course of a stress period
 
     4 CALLS TO PCG ROUTINE FOR TIME STEP  12 IN STRESS PERIOD    4
    17 TOTAL ITERATIONS

 HEAD/DRAWDOWN PRINTOUT FLAG = 0     TOTAL BUDGET PRINTOUT FLAG = 0
 CELL-BY-CELL FLOW TERM FLAG = 0
 REUSING PREVIOUS VALUES OF IOFLG
 
 SOLVING FOR HEAD 
 
MNW2 Well Conductance and Screen (Open Interval) Data
                              M O D E L  L A Y E R     W E L L  S C R E E N   Penetration    SKIN       CALCULATED
WELLID        Node    CWC*     top_elev    bott.elev    top_elev   bott.elev    fraction     COEFF.          B
QU1              1   5518.        165.6       50.00       165.6       50.00       1.000       1.000      2.2947E-05          
QU1              2  1.1934E+04    50.00       0.000       50.00       0.000       1.000       1.000      1.0610E-05          
QU2              1  1.5000E+04    50.00       0.000       50.00       0.000       1.000         N/A         N/A              
MNWQM2A          1   6059.        160.9       50.00       160.9       50.00       1.000         N/A         N/A              
MNWQM2B          1   3513.        164.3       50.00       164.3       50.00       1.000         N/A         N/A              
MNWQM3           1   7143.        50.00       0.000       50.00       0.000       1.000         N/A         N/A     COMPOSITE
* Cell-to-well conductance values (CWC) may change during the course of a stress period
 
     5 CALLS TO PCG ROUTINE FOR TIME STEP  13 IN STRESS PERIOD    4
    19 TOTAL ITERATIONS

 HEAD/DRAWDOWN PRINTOUT FLAG = 0     TOTAL BUDGET PRINTOUT FLAG = 0
 CELL-BY-CELL FLOW TERM FLAG = 0
 REUSING PREVIOUS VALUES OF IOFLG
 
 SOLVING FOR HEAD 
 
MNW2 Well Conductance and Screen (Open Interval) Data
                              M O D E L  L A Y E R     W E L L  S C R E E N   Penetration    SKIN       CALCULATED
WELLID        Node    CWC*     top_elev    bott.elev    top_elev   bott.elev    fraction     COEFF.          B
QU1              1   5481.        164.8       50.00       164.8       50.00       1.000       1.000      2.3100E-05          
QU1              2  1.1934E+04    50.00       0.000       50.00       0.000       1.000       1.000      1.0610E-05          
QU2              1  1.5000E+04    50.00       0.000       50.00       0.000       1.000         N/A         N/A              
MNWQM2A          1   6018.        160.1       50.00       160.1       50.00       1.000         N/A         N/A              
MNWQM2B          1   3471.        163.5       50.00       163.5       50.00       1.000         N/A         N/A              
MNWQM3           1   7143.        50.00       0.000       50.00       0.000       1.000         N/A         N/A     COMPOSITE
* Cell-to-well conductance values (CWC) may change during the course of a stress period
 
     5 CALLS TO PCG ROUTINE FOR TIME STEP  14 IN STRESS PERIOD    4
    19 TOTAL ITERATIONS

 HEAD/DRAWDOWN PRINTOUT FLAG = 0     TOTAL BUDGET PRINTOUT FLAG = 0
 CELL-BY-CELL FLOW TERM FLAG = 0
 REUSING PREVIOUS VALUES OF IOFLG
 
 SOLVING FOR HEAD 
 
MNW2 Well Conductance and Screen (Open Interval) Data
                              M O D E L  L A Y E R     W E L L  S C R E E N   Penetration    SKIN       CALCULATED
WELLID        Node    CWC*     top_elev    bott.elev    top_elev   bott.elev    fraction     COEFF.          B
QU1              1   5435.        163.9       50.00       163.9       50.00       1.000       1.000      2.3299E-05          
QU1              2  1.1934E+04    50.00       0.000       50.00       0.000       1.000       1.000      1.0610E-05          
QU2              1  1.5000E+04    50.00       0.000       50.00       0.000       1.000         N/A         N/A              
MNWQM2A          1   5966.        159.2       50.00       159.2       50.00       1.000         N/A         N/A              
MNWQM2B          1   3418.        162.5       50.00       162.5       50.00       1.000         N/A         N/A              
MNWQM3           1   7143.        50.00       0.000       50.00       0.000       1.000         N/A         N/A     COMPOSITE
* Cell-to-well conductance values (CWC) may change during the course of a stress period
 
     5 CALLS TO PCG ROUTINE FOR TIME STEP  15 IN STRESS PERIOD    4
    21 TOTAL ITERATIONS

 HEAD/DRAWDOWN PRINTOUT FLAG = 1     TOTAL BUDGET PRINTOUT FLAG = 1
 CELL-BY-CELL FLOW TERM FLAG = 1
 REUSING PREVIOUS VALUES OF IOFLG

 Nodal information for all MNW2 wells, PERIOD =    4  STEP =   15
WELLID                NODE   Lay   Row   Col        Totim        Q-node         hwell         hcell    Seepage elev.
QU1                      1     1     3     3   1.024000E+04 -1.880038E+04  1.591023E+02  1.626001E+02
QU1                      2     2     3     3   1.024000E+04 -1.199623E+03  1.591023E+02  1.592028E+02
QU2                      1     2    13     7   1.024000E+04 -6.685000E+04  1.428831E+02  1.473397E+02
MNWQM2A                  1     1     6     6   1.024000E+04 -2.840869E+03  1.574644E+02  1.579460E+02
MNWQM2B                  1     1     9     3   1.024000E+04 -2.840869E+03  1.604576E+02  1.613054E+02
MNWQM3                   1     2    15     9   1.024000E+04 -2.971347E+03  1.455796E+02  1.459956E+02

     Summary information for MNW2 wells
WELLID                    Totim            Qin           Qout           Qnet          hwell
QU1                     10240.0       -20000.0        0.00000       -20000.0        159.102    
QU2                     10240.0       -66850.0        0.00000       -66850.0        142.883    
MNWQM2A                 10240.0       -2840.87        0.00000       -2840.87        157.464    
MNWQM2B                 10240.0       -2840.87        0.00000       -2840.87        160.458    
MNWQM3                  10240.0       -2971.35        0.00000       -2971.35        145.580    
 
 UBUDSV SAVING "            MNW2" ON UNIT 90 AT TIME STEP 15, STRESS PERIOD    4
1
              HEAD IN LAYER   1 AT END OF TIME STEP  15 IN STRESS PERIOD    4
  ---------------------------------------------------------------------------

              1             2             3             4             5             6             7             8             9
             10            11            12            13            14
 ..............................................................................................................................
   1    164.936       164.511       163.698       162.593       161.133       159.418       157.784       155.935       153.870    
        151.897       149.622       146.811       143.314       139.000    
   2    164.829       164.344       163.396       162.306       160.675       158.546       157.187       155.297       152.870    
        151.292       149.207       146.422       142.804       138.000    
   3    164.666       164.069       162.600       161.877       159.922       155.927       156.212       154.226       149.884    
        150.194       148.492       145.734       142.045       137.000    
   4    164.555       164.060       163.087       161.949       160.241       157.991       156.453       154.304       151.589    
        149.953       147.750       144.759       141.084       136.000    
   5    164.404       163.963       163.107       161.909       160.304       158.355       156.351       153.889       150.968    
        149.142       146.621       143.104       139.841       135.000    
   6    164.170       163.737       162.886       161.639       159.992       157.946       155.799       152.854       147.929    
        147.797       145.137       139.496       138.334       134.000    
   7    163.853       163.397       162.489       161.145       159.367       157.250       155.102       152.519       149.495    
        147.588       144.968       141.331       138.009       133.000    
   8    163.476       162.971       161.952       160.440       158.336       155.714       153.880       151.493       148.580    
        146.789       144.374       141.072       137.377       132.000    
   9    163.082       162.512       161.305       159.634       156.964       152.279       152.140       149.796       145.095    
        145.294       143.260       139.539       136.391       131.000    
  10    162.728       162.127       160.903       159.063       156.519       153.438       151.365       149.007       146.292    
        144.585       142.349       139.292       135.557       130.000    
  11    162.442       161.798       160.478       158.437       155.650       152.387       149.669       147.265       145.013    
        143.014       140.796       138.027       134.395       129.000    
  12    162.262       161.572       160.126       157.771       154.261       149.549       146.304       143.933       141.984    
        140.144       138.213       135.850       132.754       128.000    
  13    162.234       161.527       160.015       157.408       152.876       143.435       140.162       138.207       136.889    
        135.412       134.112       132.344       130.366       127.000    
  14    162.377       161.713       160.320       158.045       154.638       150.018       146.772       144.350       142.296    
        140.227       137.988       135.234       131.589       126.000    
  15    162.658       162.069       160.865       159.003       156.471       153.460       150.696       148.205       145.813    
        143.301       140.444       136.904       132.135       125.000    
  16    163.017       162.504       161.475       159.934       157.924       155.582       153.153       150.696       148.134    
        145.315       142.017       137.885       132.299       124.000    
  17    163.393       162.942       162.046       160.721       159.011       156.991       154.757       152.336       149.673    
        146.641       143.020       138.442       132.234       123.000    
  18    163.739       163.333       162.528       161.340       159.801       157.949       155.823       153.421       150.689    
        147.504       143.645       138.725       132.023       122.000    
  19    164.021       163.645       162.898       161.793       160.350       158.589       156.519       154.124       151.342    
        148.047       144.012       138.830       131.723       121.000    
  20    164.219       163.860       163.147       162.089       160.699       158.984       156.942       154.546       151.730    
        148.361       144.205       138.827       131.386       120.000    
  21    164.321       163.970       163.272       162.235       160.867       159.172       157.142       154.745       151.910    
        148.504       144.281       138.787       131.098       119.000    
1
              HEAD IN LAYER   2 AT END OF TIME STEP  15 IN STRESS PERIOD    4
  ---------------------------------------------------------------------------

              1             2             3             4             5             6             7             8             9
             10            11            12            13            14
 ..............................................................................................................................
   1    160.385       160.073       159.466       158.596       157.491       156.200       154.786       153.276       151.713    
        150.163       148.657       147.255       146.080       145.336    
   2    160.317       159.997       159.375       158.497       157.372       156.053       154.633       153.106       151.519    
        149.974       148.471       147.065       145.879       145.119    
   3    160.191       159.859       159.203       158.326       157.172       155.798       154.371       152.812       151.169    
        149.633       148.126       146.707       145.508       144.734    
   4    160.024       159.693       159.048       158.135       156.962       155.582       154.090       152.482       150.818    
        149.216       147.662       146.210       144.999       144.220    
   5    159.810       159.476       158.823       157.883       156.685       155.278       153.725       152.057       150.339    
        148.690       147.087       145.592       144.383       143.611    
   6    159.545       159.201       158.529       157.554       156.314       154.861       153.255       151.527       149.740    
        148.078       146.443       144.896       143.708       142.947    
   7    159.237       158.877       158.172       157.148       155.850       154.340       152.693       150.945       149.164    
        147.463       145.818       144.288       143.055       142.266    
   8    158.904       158.522       157.771       156.683       155.303       153.712       152.029       150.265       148.479    
        146.782       145.148       143.629       142.377       141.569    
   9    158.570       158.162       157.359       156.194       154.714       153.008       151.291       149.505       147.694    
        146.036       144.427       142.916       141.672       140.860    
  10    158.268       157.833       156.978       155.734       154.162       152.375       150.550       148.744       146.973    
        145.303       143.703       142.217       140.973       140.160    
  11    158.027       157.567       156.657       155.324       153.627       151.690       149.723       147.925       146.207    
        144.557       142.979       141.519       140.293       139.494    
  12    157.877       157.397       156.440       155.018       153.163       150.975       148.729       147.080       145.471    
        143.868       142.316       140.879       139.678       138.902    
  13    157.842       157.355       156.380       154.912       152.941       150.435       147.340       146.458       145.017    
        143.440       141.878       140.422       139.213       138.443    
  14    157.925       157.452       156.508       155.101       153.259       151.068       148.791       147.080       145.376    
        143.666       141.978       140.392       139.046       138.166    
  15    158.110       157.664       156.780       155.480       153.810       151.872       149.843       147.923       145.996    
        144.156       142.310       140.552       139.034       138.023    
  16    158.360       157.946       157.128       155.932       154.407       152.633       150.716       148.749       146.740    
        144.723       142.707       140.774       139.088       137.954    
  17    158.636       158.250       157.490       156.380       154.960       153.289       151.434       149.453       147.377    
        145.238       143.078       140.991       139.156       137.914    
  18    158.900       158.537       157.821       156.774       155.426       153.820       152.001       150.011       147.884    
        145.655       143.382       141.167       139.207       137.873    
  19    159.122       158.776       158.091       157.086       155.784       154.218       152.419       150.422       148.257    
        145.963       143.604       141.289       139.230       137.821    
  20    159.282       158.945       158.280       157.301       156.026       154.482       152.694       150.690       148.500    
        146.163       143.745       141.361       139.229       137.760    
  21    159.365       159.033       158.378       157.410       156.148       154.614       152.830       150.823       148.620    
        146.261       143.813       141.392       139.219       137.710    

 HEAD WILL BE SAVED ON UNIT   89 AT END OF TIME STEP   15, STRESS PERIOD    4
1
  VOLUMETRIC BUDGET FOR ENTIRE MODEL AT END OF TIME STEP   15, STRESS PERIOD   4
  ------------------------------------------------------------------------------

     CUMULATIVE VOLUMES      L**3       RATES FOR THIS TIME STEP      L**3/T
     ------------------                 ------------------------

           IN:                                      IN:
           ---                                      ---
             STORAGE =   509473231.8408               STORAGE =     2034624.4120
       CONSTANT HEAD =           0.0000         CONSTANT HEAD =           0.0000
               WELLS =           0.0000                 WELLS =           0.0000
              DRAINS =           0.0000                DRAINS =           0.0000
            RECHARGE = 27346785375.0000              RECHARGE =           0.0000
                MNW2 =    73975321.3284                  MNW2 =           0.0000
       MANAGED WELLS =           0.0000         MANAGED WELLS =           0.0000

            TOTAL IN = 27930233928.1692              TOTAL IN =     2034624.4120

          OUT:                                     OUT:
          ----                                     ----
             STORAGE =        4014.6235               STORAGE =           0.0000
       CONSTANT HEAD = 14791549242.4204         CONSTANT HEAD =      968753.4420
               WELLS =  4107264000.0000                 WELLS =      401100.0000
              DRAINS =  8251000776.1751                DRAINS =      549267.6642
            RECHARGE =           0.0000              RECHARGE =           0.0000
                MNW2 =   675611483.4035                  MNW2 =       95503.0844
       MANAGED WELLS =   104800000.0000         MANAGED WELLS =       20000.0000

           TOTAL OUT = 27930229516.6224             TOTAL OUT =     2034624.1906

            IN - OUT =        4411.5468              IN - OUT =           0.2213

 PERCENT DISCREPANCY =           0.00     PERCENT DISCREPANCY =           0.00






         TIME SUMMARY AT END OF TIME STEP   15 IN STRESS PERIOD    4
                    SECONDS     MINUTES      HOURS       DAYS        YEARS
                    -----------------------------------------------------------
   TIME STEP LENGTH 3.66044E+06  61007.      1016.8      42.366     0.11599    
 STRESS PERIOD TIME 1.55520E+07 2.59200E+05  4320.0      180.00     0.49281    
         TOTAL TIME 8.84736E+08 1.47456E+07 2.45760E+05  10240.      28.036    
1
1
                            STRESS PERIOD NO.    5, LENGTH =   730.1000    
                            -----------------------------------------------

                              NUMBER OF TIME STEPS =    50

                               MULTIPLIER FOR DELT =     1.000

                            INITIAL TIME STEP SIZE =   14.60200    

 REUSING NON-PARAMETER WELLS FROM LAST STRESS PERIOD

      6 WELLS

 REUSING NON-PARAMETER DRAINS FROM LAST STRESS PERIOD

      8 DRAINS

                 RECHARGE =  2.800000E-03

 REUSING NON-PARAMETER SPECIFIED-HEAD DATA FROM LAST STRESS PERIOD


     21 TIME-VARIANT SPECIFIED-HEAD CELLS
 
 MNW2:            5  active wells in stress period            5
 
 
 WELLNAME = QU1                 
MNW2 Well QU1                  active, desired Q = -2.0000E+04 for stress period    5
 
 WELLNAME = QU2                 
 Qlimit < 0 : this well will be constrained
     Hlim =    115.00    
     QCUT =    0
 
MNW2 Well QU2                  active, desired Q = -6.6850E+04 for stress period    5
 
 WELLNAME = MNWQM2A             
MNW2 Well MNWQM2A              active, desired Q = -2.8409E+03 for stress period    5
 
 WELLNAME = MNWQM2B             
MNW2 Well MNWQM2B              active, desired Q = -2.8409E+03 for stress period    5
 
 WELLNAME = MNWQM3              
MNW2 Well MNWQM3               active, desired Q = -2.9713E+03 for stress period    5

Flows at Managed Wells for Stress Period    5

 Well no.  Layer   Row   Col   Stress Rate
 ----------------------------------------------------
        1      1     6     3    0.000000000000000    
        2      1     9    12   -20000.00000000000    
        3      1    18     4    0.000000000000000    
 ----------------------------------------------------
                      Total:   -20000.00000000000    
 
 SOLVING FOR HEAD 
 
MNW2 Well Conductance and Screen (Open Interval) Data
                              M O D E L  L A Y E R     W E L L  S C R E E N   Penetration    SKIN       CALCULATED
WELLID        Node    CWC*     top_elev    bott.elev    top_elev   bott.elev    fraction     COEFF.          B
QU1              1   5375.        162.6       50.00       162.6       50.00       1.000       1.000      2.3558E-05          
QU1              2  1.1934E+04    50.00       0.000       50.00       0.000       1.000       1.000      1.0610E-05          
QU2              1  1.5000E+04    50.00       0.000       50.00       0.000       1.000         N/A         N/A              
MNWQM2A          1   5900.        157.9       50.00       157.9       50.00       1.000         N/A         N/A              
MNWQM2B          1   3351.        161.3       50.00       161.3       50.00       1.000         N/A         N/A              
MNWQM3           1   7143.        50.00       0.000       50.00       0.000       1.000         N/A         N/A     COMPOSITE
* Cell-to-well conductance values (CWC) may change during the course of a stress period
 


     4 CALLS TO PCG ROUTINE FOR TIME STEP   1 IN STRESS PERIOD    5
    15 TOTAL ITERATIONS

 HEAD/DRAWDOWN PRINTOUT FLAG = 0     TOTAL BUDGET PRINTOUT FLAG = 0
 CELL-BY-CELL FLOW TERM FLAG = 0
 REUSING PREVIOUS VALUES OF IOFLG
 
 SOLVING FOR HEAD 
 
MNW2 Well Conductance and Screen (Open Interval) Data
                              M O D E L  L A Y E R     W E L L  S C R E E N   Penetration    SKIN       CALCULATED
WELLID        Node    CWC*     top_elev    bott.elev    top_elev   bott.elev    fraction     COEFF.          B
QU1              1   5393.        163.0       50.00       163.0       50.00       1.000       1.000      2.3478E-05          
QU1              2  1.1934E+04    50.00       0.000       50.00       0.000       1.000       1.000      1.0610E-05          
QU2              1  1.5000E+04    50.00       0.000       50.00       0.000       1.000         N/A         N/A              
MNWQM2A          1   5922.        158.3       50.00       158.3       50.00       1.000         N/A         N/A              
MNWQM2B          1   3372.        161.7       50.00       161.7       50.00       1.000         N/A         N/A              
MNWQM3           1   7143.        50.00       0.000       50.00       0.000       1.000         N/A         N/A     COMPOSITE
* Cell-to-well conductance values (CWC) may change during the course of a stress period
 
     4 CALLS TO PCG ROUTINE FOR TIME STEP   2 IN STRESS PERIOD    5
    13 TOTAL ITERATIONS

 HEAD/DRAWDOWN PRINTOUT FLAG = 0     TOTAL BUDGET PRINTOUT FLAG = 0
 CELL-BY-CELL FLOW TERM FLAG = 0
 REUSING PREVIOUS VALUES OF IOFLG
 
 SOLVING FOR HEAD 
 
MNW2 Well Conductance and Screen (Open Interval) Data
                              M O D E L  L A Y E R     W E L L  S C R E E N   Penetration    SKIN       CALCULATED
WELLID        Node    CWC*     top_elev    bott.elev    top_elev   bott.elev    fraction     COEFF.          B
QU1              1   5412.        163.4       50.00       163.4       50.00       1.000       1.000      2.3398E-05          
QU1              2  1.1934E+04    50.00       0.000       50.00       0.000       1.000       1.000      1.0610E-05          
QU2              1  1.5000E+04    50.00       0.000       50.00       0.000       1.000         N/A         N/A              
MNWQM2A          1   5944.        158.7       50.00       158.7       50.00       1.000         N/A         N/A              
MNWQM2B          1   3394.        162.1       50.00       162.1       50.00       1.000         N/A         N/A              
MNWQM3           1   7143.        50.00       0.000       50.00       0.000       1.000         N/A         N/A     COMPOSITE
* Cell-to-well conductance values (CWC) may change during the course of a stress period
 
     4 CALLS TO PCG ROUTINE FOR TIME STEP   3 IN STRESS PERIOD    5
    13 TOTAL ITERATIONS

 HEAD/DRAWDOWN PRINTOUT FLAG = 0     TOTAL BUDGET PRINTOUT FLAG = 0
 CELL-BY-CELL FLOW TERM FLAG = 0
 REUSING PREVIOUS VALUES OF IOFLG
 
 SOLVING FOR HEAD 
 
MNW2 Well Conductance and Screen (Open Interval) Data
                              M O D E L  L A Y E R     W E L L  S C R E E N   Penetration    SKIN       CALCULATED
WELLID        Node    CWC*     top_elev    bott.elev    top_elev   bott.elev    fraction     COEFF.          B
QU1              1   5430.        163.8       50.00       163.8       50.00       1.000       1.000      2.3318E-05          
QU1              2  1.1934E+04    50.00       0.000       50.00       0.000       1.000       1.000      1.0610E-05          
QU2              1  1.5000E+04    50.00       0.000       50.00       0.000       1.000         N/A         N/A              
MNWQM2A          1   5965.        159.1       50.00       159.1       50.00       1.000         N/A         N/A              
MNWQM2B          1   3415.        162.5       50.00       162.5       50.00       1.000         N/A         N/A              
MNWQM3           1   7143.        50.00       0.000       50.00       0.000       1.000         N/A         N/A     COMPOSITE
* Cell-to-well conductance values (CWC) may change during the course of a stress period
 
     4 CALLS TO PCG ROUTINE FOR TIME STEP   4 IN STRESS PERIOD    5
    13 TOTAL ITERATIONS

 HEAD/DRAWDOWN PRINTOUT FLAG = 0     TOTAL BUDGET PRINTOUT FLAG = 0
 CELL-BY-CELL FLOW TERM FLAG = 0
 REUSING PREVIOUS VALUES OF IOFLG
 
 SOLVING FOR HEAD 
 
MNW2 Well Conductance and Screen (Open Interval) Data
                              M O D E L  L A Y E R     W E L L  S C R E E N   Penetration    SKIN       CALCULATED
WELLID        Node    CWC*     top_elev    bott.elev    top_elev   bott.elev    fraction     COEFF.          B
QU1              1   5448.        164.1       50.00       164.1       50.00       1.000       1.000      2.3240E-05          
QU1              2  1.1934E+04    50.00       0.000       50.00       0.000       1.000       1.000      1.0610E-05          
QU2              1  1.5000E+04    50.00       0.000       50.00       0.000       1.000         N/A         N/A              
MNWQM2A          1   5987.        159.5       50.00       159.5       50.00       1.000         N/A         N/A              
MNWQM2B          1   3437.        162.9       50.00       162.9       50.00       1.000         N/A         N/A              
MNWQM3           1   7143.        50.00       0.000       50.00       0.000       1.000         N/A         N/A     COMPOSITE
* Cell-to-well conductance values (CWC) may change during the course of a stress period
 
     4 CALLS TO PCG ROUTINE FOR TIME STEP   5 IN STRESS PERIOD    5
    13 TOTAL ITERATIONS

 HEAD/DRAWDOWN PRINTOUT FLAG = 0     TOTAL BUDGET PRINTOUT FLAG = 0
 CELL-BY-CELL FLOW TERM FLAG = 0
 REUSING PREVIOUS VALUES OF IOFLG
 
 SOLVING FOR HEAD 
 
MNW2 Well Conductance and Screen (Open Interval) Data
                              M O D E L  L A Y E R     W E L L  S C R E E N   Penetration    SKIN       CALCULATED
WELLID        Node    CWC*     top_elev    bott.elev    top_elev   bott.elev    fraction     COEFF.          B
QU1              1   5467.        164.5       50.00       164.5       50.00       1.000       1.000      2.3161E-05          
QU1              2  1.1934E+04    50.00       0.000       50.00       0.000       1.000       1.000      1.0610E-05          
QU2              1  1.5000E+04    50.00       0.000       50.00       0.000       1.000         N/A         N/A              
MNWQM2A          1   6009.        159.9       50.00       159.9       50.00       1.000         N/A         N/A              
MNWQM2B          1   3458.        163.3       50.00       163.3       50.00       1.000         N/A         N/A              
MNWQM3           1   7143.        50.00       0.000       50.00       0.000       1.000         N/A         N/A     COMPOSITE
* Cell-to-well conductance values (CWC) may change during the course of a stress period
 
     4 CALLS TO PCG ROUTINE FOR TIME STEP   6 IN STRESS PERIOD    5
    13 TOTAL ITERATIONS

 HEAD/DRAWDOWN PRINTOUT FLAG = 0     TOTAL BUDGET PRINTOUT FLAG = 0
 CELL-BY-CELL FLOW TERM FLAG = 0
 REUSING PREVIOUS VALUES OF IOFLG
 
 SOLVING FOR HEAD 
 
MNW2 Well Conductance and Screen (Open Interval) Data
                              M O D E L  L A Y E R     W E L L  S C R E E N   Penetration    SKIN       CALCULATED
WELLID        Node    CWC*     top_elev    bott.elev    top_elev   bott.elev    fraction     COEFF.          B
QU1              1   5485.        164.9       50.00       164.9       50.00       1.000       1.000      2.3083E-05          
QU1              2  1.1934E+04    50.00       0.000       50.00       0.000       1.000       1.000      1.0610E-05          
QU2              1  1.5000E+04    50.00       0.000       50.00       0.000       1.000         N/A         N/A              
MNWQM2A          1   6031.        160.3       50.00       160.3       50.00       1.000         N/A         N/A              
MNWQM2B          1   3480.        163.7       50.00       163.7       50.00       1.000         N/A         N/A              
MNWQM3           1   7143.        50.00       0.000       50.00       0.000       1.000         N/A         N/A     COMPOSITE
* Cell-to-well conductance values (CWC) may change during the course of a stress period
 
     4 CALLS TO PCG ROUTINE FOR TIME STEP   7 IN STRESS PERIOD    5
    13 TOTAL ITERATIONS

 HEAD/DRAWDOWN PRINTOUT FLAG = 0     TOTAL BUDGET PRINTOUT FLAG = 0
 CELL-BY-CELL FLOW TERM FLAG = 0
 REUSING PREVIOUS VALUES OF IOFLG
 
 SOLVING FOR HEAD 
 
MNW2 Well Conductance and Screen (Open Interval) Data
                              M O D E L  L A Y E R     W E L L  S C R E E N   Penetration    SKIN       CALCULATED
WELLID        Node    CWC*     top_elev    bott.elev    top_elev   bott.elev    fraction     COEFF.          B
QU1              1   5504.        165.3       50.00       165.3       50.00       1.000       1.000      2.3006E-05          
QU1              2  1.1934E+04    50.00       0.000       50.00       0.000       1.000       1.000      1.0610E-05          
QU2              1  1.5000E+04    50.00       0.000       50.00       0.000       1.000         N/A         N/A              
MNWQM2A          1   6053.        160.7       50.00       160.7       50.00       1.000         N/A         N/A              
MNWQM2B          1   3501.        164.1       50.00       164.1       50.00       1.000         N/A         N/A              
MNWQM3           1   7143.        50.00       0.000       50.00       0.000       1.000         N/A         N/A     COMPOSITE
* Cell-to-well conductance values (CWC) may change during the course of a stress period
 
     4 CALLS TO PCG ROUTINE FOR TIME STEP   8 IN STRESS PERIOD    5
    14 TOTAL ITERATIONS

 HEAD/DRAWDOWN PRINTOUT FLAG = 0     TOTAL BUDGET PRINTOUT FLAG = 0
 CELL-BY-CELL FLOW TERM FLAG = 0
 REUSING PREVIOUS VALUES OF IOFLG
 
 SOLVING FOR HEAD 
 
MNW2 Well Conductance and Screen (Open Interval) Data
                              M O D E L  L A Y E R     W E L L  S C R E E N   Penetration    SKIN       CALCULATED
WELLID        Node    CWC*     top_elev    bott.elev    top_elev   bott.elev    fraction     COEFF.          B
QU1              1   5522.        165.7       50.00       165.7       50.00       1.000       1.000      2.2930E-05          
QU1              2  1.1934E+04    50.00       0.000       50.00       0.000       1.000       1.000      1.0610E-05          
QU2              1  1.5000E+04    50.00       0.000       50.00       0.000       1.000         N/A         N/A              
MNWQM2A          1   6075.        161.1       50.00       161.1       50.00       1.000         N/A         N/A              
MNWQM2B          1   3523.        164.5       50.00       164.5       50.00       1.000         N/A         N/A              
MNWQM3           1   7143.        50.00       0.000       50.00       0.000       1.000         N/A         N/A     COMPOSITE
* Cell-to-well conductance values (CWC) may change during the course of a stress period
 
     4 CALLS TO PCG ROUTINE FOR TIME STEP   9 IN STRESS PERIOD    5
    14 TOTAL ITERATIONS

 HEAD/DRAWDOWN PRINTOUT FLAG = 0     TOTAL BUDGET PRINTOUT FLAG = 0
 CELL-BY-CELL FLOW TERM FLAG = 0
 REUSING PREVIOUS VALUES OF IOFLG
 
 SOLVING FOR HEAD 
 
MNW2 Well Conductance and Screen (Open Interval) Data
                              M O D E L  L A Y E R     W E L L  S C R E E N   Penetration    SKIN       CALCULATED
WELLID        Node    CWC*     top_elev    bott.elev    top_elev   bott.elev    fraction     COEFF.          B
QU1              1   5540.        166.1       50.00       166.1       50.00       1.000       1.000      2.2854E-05          
QU1              2  1.1934E+04    50.00       0.000       50.00       0.000       1.000       1.000      1.0610E-05          
QU2              1  1.5000E+04    50.00       0.000       50.00       0.000       1.000         N/A         N/A              
MNWQM2A          1   6096.        161.5       50.00       161.5       50.00       1.000         N/A         N/A              
MNWQM2B          1   3544.        164.8       50.00       164.8       50.00       1.000         N/A         N/A              
MNWQM3           1   7143.        50.00       0.000       50.00       0.000       1.000         N/A         N/A     COMPOSITE
* Cell-to-well conductance values (CWC) may change during the course of a stress period
 
     4 CALLS TO PCG ROUTINE FOR TIME STEP  10 IN STRESS PERIOD    5
    14 TOTAL ITERATIONS

 HEAD/DRAWDOWN PRINTOUT FLAG = 0     TOTAL BUDGET PRINTOUT FLAG = 0
 CELL-BY-CELL FLOW TERM FLAG = 0
 REUSING PREVIOUS VALUES OF IOFLG
 
 SOLVING FOR HEAD 
 
MNW2 Well Conductance and Screen (Open Interval) Data
                              M O D E L  L A Y E R     W E L L  S C R E E N   Penetration    SKIN       CALCULATED
WELLID        Node    CWC*     top_elev    bott.elev    top_elev   bott.elev    fraction     COEFF.          B
QU1              1   5559.        166.5       50.00       166.5       50.00       1.000       1.000      2.2778E-05          
QU1              2  1.1934E+04    50.00       0.000       50.00       0.000       1.000       1.000      1.0610E-05          
QU2              1  1.5000E+04    50.00       0.000       50.00       0.000       1.000         N/A         N/A              
MNWQM2A          1   6118.        161.9       50.00       161.9       50.00       1.000         N/A         N/A              
MNWQM2B          1   3566.        165.2       50.00       165.2       50.00       1.000         N/A         N/A              
MNWQM3           1   7143.        50.00       0.000       50.00       0.000       1.000         N/A         N/A     COMPOSITE
* Cell-to-well conductance values (CWC) may change during the course of a stress period
 
     4 CALLS TO PCG ROUTINE FOR TIME STEP  11 IN STRESS PERIOD    5
    14 TOTAL ITERATIONS

 HEAD/DRAWDOWN PRINTOUT FLAG = 0     TOTAL BUDGET PRINTOUT FLAG = 0
 CELL-BY-CELL FLOW TERM FLAG = 0
 REUSING PREVIOUS VALUES OF IOFLG
 
 SOLVING FOR HEAD 
 
MNW2 Well Conductance and Screen (Open Interval) Data
                              M O D E L  L A Y E R     W E L L  S C R E E N   Penetration    SKIN       CALCULATED
WELLID        Node    CWC*     top_elev    bott.elev    top_elev   bott.elev    fraction     COEFF.          B
QU1              1   5577.        166.8       50.00       166.8       50.00       1.000       1.000      2.2704E-05          
QU1              2  1.1934E+04    50.00       0.000       50.00       0.000       1.000       1.000      1.0610E-05          
QU2              1  1.5000E+04    50.00       0.000       50.00       0.000       1.000         N/A         N/A              
MNWQM2A          1   6140.        162.3       50.00       162.3       50.00       1.000         N/A         N/A              
MNWQM2B          1   3587.        165.6       50.00       165.6       50.00       1.000         N/A         N/A              
MNWQM3           1   7143.        50.00       0.000       50.00       0.000       1.000         N/A         N/A     COMPOSITE
* Cell-to-well conductance values (CWC) may change during the course of a stress period
 
     4 CALLS TO PCG ROUTINE FOR TIME STEP  12 IN STRESS PERIOD    5
    14 TOTAL ITERATIONS

 HEAD/DRAWDOWN PRINTOUT FLAG = 0     TOTAL BUDGET PRINTOUT FLAG = 0
 CELL-BY-CELL FLOW TERM FLAG = 0
 REUSING PREVIOUS VALUES OF IOFLG
 
 SOLVING FOR HEAD 
 
MNW2 Well Conductance and Screen (Open Interval) Data
                              M O D E L  L A Y E R     W E L L  S C R E E N   Penetration    SKIN       CALCULATED
WELLID        Node    CWC*     top_elev    bott.elev    top_elev   bott.elev    fraction     COEFF.          B
QU1              1   5595.        167.2       50.00       167.2       50.00       1.000       1.000      2.2630E-05          
QU1              2  1.1934E+04    50.00       0.000       50.00       0.000       1.000       1.000      1.0610E-05          
QU2              1  1.5000E+04    50.00       0.000       50.00       0.000       1.000         N/A         N/A              
MNWQM2A          1   6161.        162.7       50.00       162.7       50.00       1.000         N/A         N/A              
MNWQM2B          1   3608.        166.0       50.00       166.0       50.00       1.000         N/A         N/A              
MNWQM3           1   7143.        50.00       0.000       50.00       0.000       1.000         N/A         N/A     COMPOSITE
* Cell-to-well conductance values (CWC) may change during the course of a stress period
 
     4 CALLS TO PCG ROUTINE FOR TIME STEP  13 IN STRESS PERIOD    5
    14 TOTAL ITERATIONS

 HEAD/DRAWDOWN PRINTOUT FLAG = 0     TOTAL BUDGET PRINTOUT FLAG = 0
 CELL-BY-CELL FLOW TERM FLAG = 0
 REUSING PREVIOUS VALUES OF IOFLG
 
 SOLVING FOR HEAD 
 
MNW2 Well Conductance and Screen (Open Interval) Data
                              M O D E L  L A Y E R     W E L L  S C R E E N   Penetration    SKIN       CALCULATED
WELLID        Node    CWC*     top_elev    bott.elev    top_elev   bott.elev    fraction     COEFF.          B
QU1              1   5613.        167.6       50.00       167.6       50.00       1.000       1.000      2.2556E-05          
QU1              2  1.1934E+04    50.00       0.000       50.00       0.000       1.000       1.000      1.0610E-05          
QU2              1  1.5000E+04    50.00       0.000       50.00       0.000       1.000         N/A         N/A              
MNWQM2A          1   6182.        163.1       50.00       163.1       50.00       1.000         N/A         N/A              
MNWQM2B          1   3629.        166.4       50.00       166.4       50.00       1.000         N/A         N/A              
MNWQM3           1   7143.        50.00       0.000       50.00       0.000       1.000         N/A         N/A     COMPOSITE
* Cell-to-well conductance values (CWC) may change during the course of a stress period
 
     4 CALLS TO PCG ROUTINE FOR TIME STEP  14 IN STRESS PERIOD    5
    15 TOTAL ITERATIONS

 HEAD/DRAWDOWN PRINTOUT FLAG = 0     TOTAL BUDGET PRINTOUT FLAG = 0
 CELL-BY-CELL FLOW TERM FLAG = 0
 REUSING PREVIOUS VALUES OF IOFLG
 
 SOLVING FOR HEAD 
 
MNW2 Well Conductance and Screen (Open Interval) Data
                              M O D E L  L A Y E R     W E L L  S C R E E N   Penetration    SKIN       CALCULATED
WELLID        Node    CWC*     top_elev    bott.elev    top_elev   bott.elev    fraction     COEFF.          B
QU1              1   5632.        168.0       50.00       168.0       50.00       1.000       1.000      2.2484E-05          
QU1              2  1.1934E+04    50.00       0.000       50.00       0.000       1.000       1.000      1.0610E-05          
QU2              1  1.5000E+04    50.00       0.000       50.00       0.000       1.000         N/A         N/A              
MNWQM2A          1   6204.        163.5       50.00       163.5       50.00       1.000         N/A         N/A              
MNWQM2B          1   3650.        166.8       50.00       166.8       50.00       1.000         N/A         N/A              
MNWQM3           1   7143.        50.00       0.000       50.00       0.000       1.000         N/A         N/A     COMPOSITE
* Cell-to-well conductance values (CWC) may change during the course of a stress period
 
     4 CALLS TO PCG ROUTINE FOR TIME STEP  15 IN STRESS PERIOD    5
    15 TOTAL ITERATIONS

 HEAD/DRAWDOWN PRINTOUT FLAG = 0     TOTAL BUDGET PRINTOUT FLAG = 0
 CELL-BY-CELL FLOW TERM FLAG = 0
 REUSING PREVIOUS VALUES OF IOFLG
 
 SOLVING FOR HEAD 
 
MNW2 Well Conductance and Screen (Open Interval) Data
                              M O D E L  L A Y E R     W E L L  S C R E E N   Penetration    SKIN       CALCULATED
WELLID        Node    CWC*     top_elev    bott.elev    top_elev   bott.elev    fraction     COEFF.          B
QU1              1   5650.        168.4       50.00       168.4       50.00       1.000       1.000      2.2412E-05          
QU1              2  1.1934E+04    50.00       0.000       50.00       0.000       1.000       1.000      1.0610E-05          
QU2              1  1.5000E+04    50.00       0.000       50.00       0.000       1.000         N/A         N/A              
MNWQM2A          1   6224.        163.9       50.00       163.9       50.00       1.000         N/A         N/A              
MNWQM2B          1   3671.        167.2       50.00       167.2       50.00       1.000         N/A         N/A              
MNWQM3           1   7143.        50.00       0.000       50.00       0.000       1.000         N/A         N/A     COMPOSITE
* Cell-to-well conductance values (CWC) may change during the course of a stress period
 
     4 CALLS TO PCG ROUTINE FOR TIME STEP  16 IN STRESS PERIOD    5
    15 TOTAL ITERATIONS

 HEAD/DRAWDOWN PRINTOUT FLAG = 0     TOTAL BUDGET PRINTOUT FLAG = 0
 CELL-BY-CELL FLOW TERM FLAG = 0
 REUSING PREVIOUS VALUES OF IOFLG
 
 SOLVING FOR HEAD 
 
MNW2 Well Conductance and Screen (Open Interval) Data
                              M O D E L  L A Y E R     W E L L  S C R E E N   Penetration    SKIN       CALCULATED
WELLID        Node    CWC*     top_elev    bott.elev    top_elev   bott.elev    fraction     COEFF.          B
QU1              1   5668.        168.7       50.00       168.7       50.00       1.000       1.000      2.2341E-05          
QU1              2  1.1934E+04    50.00       0.000       50.00       0.000       1.000       1.000      1.0610E-05          
QU2              1  1.5000E+04    50.00       0.000       50.00       0.000       1.000         N/A         N/A              
MNWQM2A          1   6245.        164.3       50.00       164.3       50.00       1.000         N/A         N/A              
MNWQM2B          1   3692.        167.5       50.00       167.5       50.00       1.000         N/A         N/A              
MNWQM3           1   7143.        50.00       0.000       50.00       0.000       1.000         N/A         N/A     COMPOSITE
* Cell-to-well conductance values (CWC) may change during the course of a stress period
 
     4 CALLS TO PCG ROUTINE FOR TIME STEP  17 IN STRESS PERIOD    5
    15 TOTAL ITERATIONS

 HEAD/DRAWDOWN PRINTOUT FLAG = 0     TOTAL BUDGET PRINTOUT FLAG = 0
 CELL-BY-CELL FLOW TERM FLAG = 0
 REUSING PREVIOUS VALUES OF IOFLG
 
 SOLVING FOR HEAD 
 
MNW2 Well Conductance and Screen (Open Interval) Data
                              M O D E L  L A Y E R     W E L L  S C R E E N   Penetration    SKIN       CALCULATED
WELLID        Node    CWC*     top_elev    bott.elev    top_elev   bott.elev    fraction     COEFF.          B
QU1              1   5686.        169.1       50.00       169.1       50.00       1.000       1.000      2.2270E-05          
QU1              2  1.1934E+04    50.00       0.000       50.00       0.000       1.000       1.000      1.0610E-05          
QU2              1  1.5000E+04    50.00       0.000       50.00       0.000       1.000         N/A         N/A              
MNWQM2A          1   6266.        164.6       50.00       164.6       50.00       1.000         N/A         N/A              
MNWQM2B          1   3712.        167.9       50.00       167.9       50.00       1.000         N/A         N/A              
MNWQM3           1   7143.        50.00       0.000       50.00       0.000       1.000         N/A         N/A     COMPOSITE
* Cell-to-well conductance values (CWC) may change during the course of a stress period
 
     4 CALLS TO PCG ROUTINE FOR TIME STEP  18 IN STRESS PERIOD    5
    15 TOTAL ITERATIONS

 HEAD/DRAWDOWN PRINTOUT FLAG = 0     TOTAL BUDGET PRINTOUT FLAG = 0
 CELL-BY-CELL FLOW TERM FLAG = 0
 REUSING PREVIOUS VALUES OF IOFLG
 
 SOLVING FOR HEAD 
 
MNW2 Well Conductance and Screen (Open Interval) Data
                              M O D E L  L A Y E R     W E L L  S C R E E N   Penetration    SKIN       CALCULATED
WELLID        Node    CWC*     top_elev    bott.elev    top_elev   bott.elev    fraction     COEFF.          B
QU1              1   5703.        169.5       50.00       169.5       50.00       1.000       1.000      2.2201E-05          
QU1              2  1.1934E+04    50.00       0.000       50.00       0.000       1.000       1.000      1.0610E-05          
QU2              1  1.5000E+04    50.00       0.000       50.00       0.000       1.000         N/A         N/A              
MNWQM2A          1   6286.        165.0       50.00       165.0       50.00       1.000         N/A         N/A              
MNWQM2B          1   3732.        168.3       50.00       168.3       50.00       1.000         N/A         N/A              
MNWQM3           1   7143.        50.00       0.000       50.00       0.000       1.000         N/A         N/A     COMPOSITE
* Cell-to-well conductance values (CWC) may change during the course of a stress period
 
     4 CALLS TO PCG ROUTINE FOR TIME STEP  19 IN STRESS PERIOD    5
    15 TOTAL ITERATIONS

 HEAD/DRAWDOWN PRINTOUT FLAG = 0     TOTAL BUDGET PRINTOUT FLAG = 0
 CELL-BY-CELL FLOW TERM FLAG = 0
 REUSING PREVIOUS VALUES OF IOFLG
 
 SOLVING FOR HEAD 
 
MNW2 Well Conductance and Screen (Open Interval) Data
                              M O D E L  L A Y E R     W E L L  S C R E E N   Penetration    SKIN       CALCULATED
WELLID        Node    CWC*     top_elev    bott.elev    top_elev   bott.elev    fraction     COEFF.          B
QU1              1   5721.        169.9       50.00       169.9       50.00       1.000       1.000      2.2132E-05          
QU1              2  1.1934E+04    50.00       0.000       50.00       0.000       1.000       1.000      1.0610E-05          
QU2              1  1.5000E+04    50.00       0.000       50.00       0.000       1.000         N/A         N/A              
MNWQM2A          1   6307.        165.4       50.00       165.4       50.00       1.000         N/A         N/A              
MNWQM2B          1   3753.        168.7       50.00       168.7       50.00       1.000         N/A         N/A              
MNWQM3           1   7143.        50.00       0.000       50.00       0.000       1.000         N/A         N/A     COMPOSITE
* Cell-to-well conductance values (CWC) may change during the course of a stress period
 
     4 CALLS TO PCG ROUTINE FOR TIME STEP  20 IN STRESS PERIOD    5
    15 TOTAL ITERATIONS

 HEAD/DRAWDOWN PRINTOUT FLAG = 0     TOTAL BUDGET PRINTOUT FLAG = 0
 CELL-BY-CELL FLOW TERM FLAG = 0
 REUSING PREVIOUS VALUES OF IOFLG
 
 SOLVING FOR HEAD 
 
MNW2 Well Conductance and Screen (Open Interval) Data
                              M O D E L  L A Y E R     W E L L  S C R E E N   Penetration    SKIN       CALCULATED
WELLID        Node    CWC*     top_elev    bott.elev    top_elev   bott.elev    fraction     COEFF.          B
QU1              1   5739.        170.2       50.00       170.2       50.00       1.000       1.000      2.2064E-05          
QU1              2  1.1934E+04    50.00       0.000       50.00       0.000       1.000       1.000      1.0610E-05          
QU2              1  1.5000E+04    50.00       0.000       50.00       0.000       1.000         N/A         N/A              
MNWQM2A          1   6327.        165.8       50.00       165.8       50.00       1.000         N/A         N/A              
MNWQM2B          1   3773.        169.0       50.00       169.0       50.00       1.000         N/A         N/A              
MNWQM3           1   7143.        50.00       0.000       50.00       0.000       1.000         N/A         N/A     COMPOSITE
* Cell-to-well conductance values (CWC) may change during the course of a stress period
 
     4 CALLS TO PCG ROUTINE FOR TIME STEP  21 IN STRESS PERIOD    5
    15 TOTAL ITERATIONS

 HEAD/DRAWDOWN PRINTOUT FLAG = 0     TOTAL BUDGET PRINTOUT FLAG = 0
 CELL-BY-CELL FLOW TERM FLAG = 0
 REUSING PREVIOUS VALUES OF IOFLG
 
 SOLVING FOR HEAD 
 
MNW2 Well Conductance and Screen (Open Interval) Data
                              M O D E L  L A Y E R     W E L L  S C R E E N   Penetration    SKIN       CALCULATED
WELLID        Node    CWC*     top_elev    bott.elev    top_elev   bott.elev    fraction     COEFF.          B
QU1              1   5756.        170.6       50.00       170.6       50.00       1.000       1.000      2.1996E-05          
QU1              2  1.1934E+04    50.00       0.000       50.00       0.000       1.000       1.000      1.0610E-05          
QU2              1  1.5000E+04    50.00       0.000       50.00       0.000       1.000         N/A         N/A              
MNWQM2A          1   6347.        166.1       50.00       166.1       50.00       1.000         N/A         N/A              
MNWQM2B          1   3793.        169.4       50.00       169.4       50.00       1.000         N/A         N/A              
MNWQM3           1   7143.        50.00       0.000       50.00       0.000       1.000         N/A         N/A     COMPOSITE
* Cell-to-well conductance values (CWC) may change during the course of a stress period
 
     4 CALLS TO PCG ROUTINE FOR TIME STEP  22 IN STRESS PERIOD    5
    15 TOTAL ITERATIONS

 HEAD/DRAWDOWN PRINTOUT FLAG = 0     TOTAL BUDGET PRINTOUT FLAG = 0
 CELL-BY-CELL FLOW TERM FLAG = 0
 REUSING PREVIOUS VALUES OF IOFLG
 
 SOLVING FOR HEAD 
 
MNW2 Well Conductance and Screen (Open Interval) Data
                              M O D E L  L A Y E R     W E L L  S C R E E N   Penetration    SKIN       CALCULATED
WELLID        Node    CWC*     top_elev    bott.elev    top_elev   bott.elev    fraction     COEFF.          B
QU1              1   5774.        171.0       50.00       171.0       50.00       1.000       1.000      2.1930E-05          
QU1              2  1.1934E+04    50.00       0.000       50.00       0.000       1.000       1.000      1.0610E-05          
QU2              1  1.5000E+04    50.00       0.000       50.00       0.000       1.000         N/A         N/A              
MNWQM2A          1   6366.        166.5       50.00       166.5       50.00       1.000         N/A         N/A              
MNWQM2B          1   3812.        169.8       50.00       169.8       50.00       1.000         N/A         N/A              
MNWQM3           1   7143.        50.00       0.000       50.00       0.000       1.000         N/A         N/A     COMPOSITE
* Cell-to-well conductance values (CWC) may change during the course of a stress period
 
     4 CALLS TO PCG ROUTINE FOR TIME STEP  23 IN STRESS PERIOD    5
    15 TOTAL ITERATIONS

 HEAD/DRAWDOWN PRINTOUT FLAG = 0     TOTAL BUDGET PRINTOUT FLAG = 0
 CELL-BY-CELL FLOW TERM FLAG = 0
 REUSING PREVIOUS VALUES OF IOFLG
 
 SOLVING FOR HEAD 
 
MNW2 Well Conductance and Screen (Open Interval) Data
                              M O D E L  L A Y E R     W E L L  S C R E E N   Penetration    SKIN       CALCULATED
WELLID        Node    CWC*     top_elev    bott.elev    top_elev   bott.elev    fraction     COEFF.          B
QU1              1   5791.        171.3       50.00       171.3       50.00       1.000       1.000      2.1864E-05          
QU1              2  1.1934E+04    50.00       0.000       50.00       0.000       1.000       1.000      1.0610E-05          
QU2              1  1.5000E+04    50.00       0.000       50.00       0.000       1.000         N/A         N/A              
MNWQM2A          1   6386.        166.8       50.00       166.8       50.00       1.000         N/A         N/A              
MNWQM2B          1   3832.        170.1       50.00       170.1       50.00       1.000         N/A         N/A              
MNWQM3           1   7143.        50.00       0.000       50.00       0.000       1.000         N/A         N/A     COMPOSITE
* Cell-to-well conductance values (CWC) may change during the course of a stress period
 
     4 CALLS TO PCG ROUTINE FOR TIME STEP  24 IN STRESS PERIOD    5
    15 TOTAL ITERATIONS

 HEAD/DRAWDOWN PRINTOUT FLAG = 0     TOTAL BUDGET PRINTOUT FLAG = 0
 CELL-BY-CELL FLOW TERM FLAG = 0
 REUSING PREVIOUS VALUES OF IOFLG
 
 SOLVING FOR HEAD 
 
MNW2 Well Conductance and Screen (Open Interval) Data
                              M O D E L  L A Y E R     W E L L  S C R E E N   Penetration    SKIN       CALCULATED
WELLID        Node    CWC*     top_elev    bott.elev    top_elev   bott.elev    fraction     COEFF.          B
QU1              1   5809.        171.7       50.00       171.7       50.00       1.000       1.000      2.1799E-05          
QU1              2  1.1934E+04    50.00       0.000       50.00       0.000       1.000       1.000      1.0610E-05          
QU2              1  1.5000E+04    50.00       0.000       50.00       0.000       1.000         N/A         N/A              
MNWQM2A          1   6405.        167.2       50.00       167.2       50.00       1.000         N/A         N/A              
MNWQM2B          1   3851.        170.5       50.00       170.5       50.00       1.000         N/A         N/A              
MNWQM3           1   7143.        50.00       0.000       50.00       0.000       1.000         N/A         N/A     COMPOSITE
* Cell-to-well conductance values (CWC) may change during the course of a stress period
 
     4 CALLS TO PCG ROUTINE FOR TIME STEP  25 IN STRESS PERIOD    5
    15 TOTAL ITERATIONS

 HEAD/DRAWDOWN PRINTOUT FLAG = 0     TOTAL BUDGET PRINTOUT FLAG = 0
 CELL-BY-CELL FLOW TERM FLAG = 0
 REUSING PREVIOUS VALUES OF IOFLG
 
 SOLVING FOR HEAD 
 
MNW2 Well Conductance and Screen (Open Interval) Data
                              M O D E L  L A Y E R     W E L L  S C R E E N   Penetration    SKIN       CALCULATED
WELLID        Node    CWC*     top_elev    bott.elev    top_elev   bott.elev    fraction     COEFF.          B
QU1              1   5826.        172.0       50.00       172.0       50.00       1.000       1.000      2.1735E-05          
QU1              2  1.1934E+04    50.00       0.000       50.00       0.000       1.000       1.000      1.0610E-05          
QU2              1  1.5000E+04    50.00       0.000       50.00       0.000       1.000         N/A         N/A              
MNWQM2A          1   6424.        167.5       50.00       167.5       50.00       1.000         N/A         N/A              
MNWQM2B          1   3871.        170.8       50.00       170.8       50.00       1.000         N/A         N/A              
MNWQM3           1   7143.        50.00       0.000       50.00       0.000       1.000         N/A         N/A     COMPOSITE
* Cell-to-well conductance values (CWC) may change during the course of a stress period
 
     4 CALLS TO PCG ROUTINE FOR TIME STEP  26 IN STRESS PERIOD    5
    15 TOTAL ITERATIONS

 HEAD/DRAWDOWN PRINTOUT FLAG = 0     TOTAL BUDGET PRINTOUT FLAG = 0
 CELL-BY-CELL FLOW TERM FLAG = 0
 REUSING PREVIOUS VALUES OF IOFLG
 
 SOLVING FOR HEAD 
 
MNW2 Well Conductance and Screen (Open Interval) Data
                              M O D E L  L A Y E R     W E L L  S C R E E N   Penetration    SKIN       CALCULATED
WELLID        Node    CWC*     top_elev    bott.elev    top_elev   bott.elev    fraction     COEFF.          B
QU1              1   5843.        172.4       50.00       172.4       50.00       1.000       1.000      2.1671E-05          
QU1              2  1.1934E+04    50.00       0.000       50.00       0.000       1.000       1.000      1.0610E-05          
QU2              1  1.5000E+04    50.00       0.000       50.00       0.000       1.000         N/A         N/A              
MNWQM2A          1   6443.        167.9       50.00       167.9       50.00       1.000         N/A         N/A              
MNWQM2B          1   3890.        171.2       50.00       171.2       50.00       1.000         N/A         N/A              
MNWQM3           1   7143.        50.00       0.000       50.00       0.000       1.000         N/A         N/A     COMPOSITE
* Cell-to-well conductance values (CWC) may change during the course of a stress period
 
     4 CALLS TO PCG ROUTINE FOR TIME STEP  27 IN STRESS PERIOD    5
    15 TOTAL ITERATIONS

 HEAD/DRAWDOWN PRINTOUT FLAG = 0     TOTAL BUDGET PRINTOUT FLAG = 0
 CELL-BY-CELL FLOW TERM FLAG = 0
 REUSING PREVIOUS VALUES OF IOFLG
 
 SOLVING FOR HEAD 
 
MNW2 Well Conductance and Screen (Open Interval) Data
                              M O D E L  L A Y E R     W E L L  S C R E E N   Penetration    SKIN       CALCULATED
WELLID        Node    CWC*     top_elev    bott.elev    top_elev   bott.elev    fraction     COEFF.          B
QU1              1   5860.        172.8       50.00       172.8       50.00       1.000       1.000      2.1609E-05          
QU1              2  1.1934E+04    50.00       0.000       50.00       0.000       1.000       1.000      1.0610E-05          
QU2              1  1.5000E+04    50.00       0.000       50.00       0.000       1.000         N/A         N/A              
MNWQM2A          1   6462.        168.2       50.00       168.2       50.00       1.000         N/A         N/A              
MNWQM2B          1   3909.        171.5       50.00       171.5       50.00       1.000         N/A         N/A              
MNWQM3           1   7143.        50.00       0.000       50.00       0.000       1.000         N/A         N/A     COMPOSITE
* Cell-to-well conductance values (CWC) may change during the course of a stress period
 
     4 CALLS TO PCG ROUTINE FOR TIME STEP  28 IN STRESS PERIOD    5
    15 TOTAL ITERATIONS

 HEAD/DRAWDOWN PRINTOUT FLAG = 0     TOTAL BUDGET PRINTOUT FLAG = 0
 CELL-BY-CELL FLOW TERM FLAG = 0
 REUSING PREVIOUS VALUES OF IOFLG
 
 SOLVING FOR HEAD 
 
MNW2 Well Conductance and Screen (Open Interval) Data
                              M O D E L  L A Y E R     W E L L  S C R E E N   Penetration    SKIN       CALCULATED
WELLID        Node    CWC*     top_elev    bott.elev    top_elev   bott.elev    fraction     COEFF.          B
QU1              1   5876.        173.1       50.00       173.1       50.00       1.000       1.000      2.1547E-05          
QU1              2  1.1934E+04    50.00       0.000       50.00       0.000       1.000       1.000      1.0610E-05          
QU2              1  1.5000E+04    50.00       0.000       50.00       0.000       1.000         N/A         N/A              
MNWQM2A          1   6480.        168.6       50.00       168.6       50.00       1.000         N/A         N/A              
MNWQM2B          1   3927.        171.9       50.00       171.9       50.00       1.000         N/A         N/A              
MNWQM3           1   7143.        50.00       0.000       50.00       0.000       1.000         N/A         N/A     COMPOSITE
* Cell-to-well conductance values (CWC) may change during the course of a stress period
 
     4 CALLS TO PCG ROUTINE FOR TIME STEP  29 IN STRESS PERIOD    5
    15 TOTAL ITERATIONS

 HEAD/DRAWDOWN PRINTOUT FLAG = 0     TOTAL BUDGET PRINTOUT FLAG = 0
 CELL-BY-CELL FLOW TERM FLAG = 0
 REUSING PREVIOUS VALUES OF IOFLG
 
 SOLVING FOR HEAD 
 
MNW2 Well Conductance and Screen (Open Interval) Data
                              M O D E L  L A Y E R     W E L L  S C R E E N   Penetration    SKIN       CALCULATED
WELLID        Node    CWC*     top_elev    bott.elev    top_elev   bott.elev    fraction     COEFF.          B
QU1              1   5893.        173.5       50.00       173.5       50.00       1.000       1.000      2.1486E-05          
QU1              2  1.1934E+04    50.00       0.000       50.00       0.000       1.000       1.000      1.0610E-05          
QU2              1  1.5000E+04    50.00       0.000       50.00       0.000       1.000         N/A         N/A              
MNWQM2A          1   6498.        168.9       50.00       168.9       50.00       1.000         N/A         N/A              
MNWQM2B          1   3946.        172.2       50.00       172.2       50.00       1.000         N/A         N/A              
MNWQM3           1   7143.        50.00       0.000       50.00       0.000       1.000         N/A         N/A     COMPOSITE
* Cell-to-well conductance values (CWC) may change during the course of a stress period
 
     4 CALLS TO PCG ROUTINE FOR TIME STEP  30 IN STRESS PERIOD    5
    15 TOTAL ITERATIONS

 HEAD/DRAWDOWN PRINTOUT FLAG = 0     TOTAL BUDGET PRINTOUT FLAG = 0
 CELL-BY-CELL FLOW TERM FLAG = 0
 REUSING PREVIOUS VALUES OF IOFLG
 
 SOLVING FOR HEAD 
 
MNW2 Well Conductance and Screen (Open Interval) Data
                              M O D E L  L A Y E R     W E L L  S C R E E N   Penetration    SKIN       CALCULATED
WELLID        Node    CWC*     top_elev    bott.elev    top_elev   bott.elev    fraction     COEFF.          B
QU1              1   5910.        173.8       50.00       173.8       50.00       1.000       1.000      2.1426E-05          
QU1              2  1.1934E+04    50.00       0.000       50.00       0.000       1.000       1.000      1.0610E-05          
QU2              1  1.5000E+04    50.00       0.000       50.00       0.000       1.000         N/A         N/A              
MNWQM2A          1   6516.        169.2       50.00       169.2       50.00       1.000         N/A         N/A              
MNWQM2B          1   3964.        172.5       50.00       172.5       50.00       1.000         N/A         N/A              
MNWQM3           1   7143.        50.00       0.000       50.00       0.000       1.000         N/A         N/A     COMPOSITE
* Cell-to-well conductance values (CWC) may change during the course of a stress period
 
     4 CALLS TO PCG ROUTINE FOR TIME STEP  31 IN STRESS PERIOD    5
    15 TOTAL ITERATIONS

 HEAD/DRAWDOWN PRINTOUT FLAG = 0     TOTAL BUDGET PRINTOUT FLAG = 0
 CELL-BY-CELL FLOW TERM FLAG = 0
 REUSING PREVIOUS VALUES OF IOFLG
 
 SOLVING FOR HEAD 
 
MNW2 Well Conductance and Screen (Open Interval) Data
                              M O D E L  L A Y E R     W E L L  S C R E E N   Penetration    SKIN       CALCULATED
WELLID        Node    CWC*     top_elev    bott.elev    top_elev   bott.elev    fraction     COEFF.          B
QU1              1   5926.        174.1       50.00       174.1       50.00       1.000       1.000      2.1367E-05          
QU1              2  1.1934E+04    50.00       0.000       50.00       0.000       1.000       1.000      1.0610E-05          
QU2              1  1.5000E+04    50.00       0.000       50.00       0.000       1.000         N/A         N/A              
MNWQM2A          1   6534.        169.5       50.00       169.5       50.00       1.000         N/A         N/A              
MNWQM2B          1   3982.        172.9       50.00       172.9       50.00       1.000         N/A         N/A              
MNWQM3           1   7143.        50.00       0.000       50.00       0.000       1.000         N/A         N/A     COMPOSITE
* Cell-to-well conductance values (CWC) may change during the course of a stress period
 
     4 CALLS TO PCG ROUTINE FOR TIME STEP  32 IN STRESS PERIOD    5
    15 TOTAL ITERATIONS

 HEAD/DRAWDOWN PRINTOUT FLAG = 0     TOTAL BUDGET PRINTOUT FLAG = 0
 CELL-BY-CELL FLOW TERM FLAG = 0
 REUSING PREVIOUS VALUES OF IOFLG
 
 SOLVING FOR HEAD 
 
MNW2 Well Conductance and Screen (Open Interval) Data
                              M O D E L  L A Y E R     W E L L  S C R E E N   Penetration    SKIN       CALCULATED
WELLID        Node    CWC*     top_elev    bott.elev    top_elev   bott.elev    fraction     COEFF.          B
QU1              1   5942.        174.5       50.00       174.5       50.00       1.000       1.000      2.1308E-05          
QU1              2  1.1934E+04    50.00       0.000       50.00       0.000       1.000       1.000      1.0610E-05          
QU2              1  1.5000E+04    50.00       0.000       50.00       0.000       1.000         N/A         N/A              
MNWQM2A          1   6551.        169.9       50.00       169.9       50.00       1.000         N/A         N/A              
MNWQM2B          1   4000.        173.2       50.00       173.2       50.00       1.000         N/A         N/A              
MNWQM3           1   7143.        50.00       0.000       50.00       0.000       1.000         N/A         N/A     COMPOSITE
* Cell-to-well conductance values (CWC) may change during the course of a stress period
 
     4 CALLS TO PCG ROUTINE FOR TIME STEP  33 IN STRESS PERIOD    5
    15 TOTAL ITERATIONS

 HEAD/DRAWDOWN PRINTOUT FLAG = 0     TOTAL BUDGET PRINTOUT FLAG = 0
 CELL-BY-CELL FLOW TERM FLAG = 0
 REUSING PREVIOUS VALUES OF IOFLG
 
 SOLVING FOR HEAD 
 
MNW2 Well Conductance and Screen (Open Interval) Data
                              M O D E L  L A Y E R     W E L L  S C R E E N   Penetration    SKIN       CALCULATED
WELLID        Node    CWC*     top_elev    bott.elev    top_elev   bott.elev    fraction     COEFF.          B
QU1              1   5958.        174.8       50.00       174.8       50.00       1.000       1.000      2.1251E-05          
QU1              2  1.1934E+04    50.00       0.000       50.00       0.000       1.000       1.000      1.0610E-05          
QU2              1  1.5000E+04    50.00       0.000       50.00       0.000       1.000         N/A         N/A              
MNWQM2A          1   6569.        170.2       50.00       170.2       50.00       1.000         N/A         N/A              
MNWQM2B          1   4018.        173.5       50.00       173.5       50.00       1.000         N/A         N/A              
MNWQM3           1   7143.        50.00       0.000       50.00       0.000       1.000         N/A         N/A     COMPOSITE
* Cell-to-well conductance values (CWC) may change during the course of a stress period
 
     4 CALLS TO PCG ROUTINE FOR TIME STEP  34 IN STRESS PERIOD    5
    15 TOTAL ITERATIONS

 HEAD/DRAWDOWN PRINTOUT FLAG = 0     TOTAL BUDGET PRINTOUT FLAG = 0
 CELL-BY-CELL FLOW TERM FLAG = 0
 REUSING PREVIOUS VALUES OF IOFLG
 
 SOLVING FOR HEAD 
 
MNW2 Well Conductance and Screen (Open Interval) Data
                              M O D E L  L A Y E R     W E L L  S C R E E N   Penetration    SKIN       CALCULATED
WELLID        Node    CWC*     top_elev    bott.elev    top_elev   bott.elev    fraction     COEFF.          B
QU1              1   5974.        175.2       50.00       175.2       50.00       1.000       1.000      2.1194E-05          
QU1              2  1.1934E+04    50.00       0.000       50.00       0.000       1.000       1.000      1.0610E-05          
QU2              1  1.5000E+04    50.00       0.000       50.00       0.000       1.000         N/A         N/A              
MNWQM2A          1   6586.        170.5       50.00       170.5       50.00       1.000         N/A         N/A              
MNWQM2B          1   4036.        173.8       50.00       173.8       50.00       1.000         N/A         N/A              
MNWQM3           1   7143.        50.00       0.000       50.00       0.000       1.000         N/A         N/A     COMPOSITE
* Cell-to-well conductance values (CWC) may change during the course of a stress period
 
     4 CALLS TO PCG ROUTINE FOR TIME STEP  35 IN STRESS PERIOD    5
    15 TOTAL ITERATIONS

 HEAD/DRAWDOWN PRINTOUT FLAG = 0     TOTAL BUDGET PRINTOUT FLAG = 0
 CELL-BY-CELL FLOW TERM FLAG = 0
 REUSING PREVIOUS VALUES OF IOFLG
 
 SOLVING FOR HEAD 
 
MNW2 Well Conductance and Screen (Open Interval) Data
                              M O D E L  L A Y E R     W E L L  S C R E E N   Penetration    SKIN       CALCULATED
WELLID        Node    CWC*     top_elev    bott.elev    top_elev   bott.elev    fraction     COEFF.          B
QU1              1   5990.        175.5       50.00       175.5       50.00       1.000       1.000      2.1138E-05          
QU1              2  1.1934E+04    50.00       0.000       50.00       0.000       1.000       1.000      1.0610E-05          
QU2              1  1.5000E+04    50.00       0.000       50.00       0.000       1.000         N/A         N/A              
MNWQM2A          1   6603.        170.8       50.00       170.8       50.00       1.000         N/A         N/A              
MNWQM2B          1   4053.        174.2       50.00       174.2       50.00       1.000         N/A         N/A              
MNWQM3           1   7143.        50.00       0.000       50.00       0.000       1.000         N/A         N/A     COMPOSITE
* Cell-to-well conductance values (CWC) may change during the course of a stress period
 
     4 CALLS TO PCG ROUTINE FOR TIME STEP  36 IN STRESS PERIOD    5
    15 TOTAL ITERATIONS

 HEAD/DRAWDOWN PRINTOUT FLAG = 0     TOTAL BUDGET PRINTOUT FLAG = 0
 CELL-BY-CELL FLOW TERM FLAG = 0
 REUSING PREVIOUS VALUES OF IOFLG
 
 SOLVING FOR HEAD 
 
MNW2 Well Conductance and Screen (Open Interval) Data
                              M O D E L  L A Y E R     W E L L  S C R E E N   Penetration    SKIN       CALCULATED
WELLID        Node    CWC*     top_elev    bott.elev    top_elev   bott.elev    fraction     COEFF.          B
QU1              1   6006.        175.8       50.00       175.8       50.00       1.000       1.000      2.1083E-05          
QU1              2  1.1934E+04    50.00       0.000       50.00       0.000       1.000       1.000      1.0610E-05          
QU2              1  1.5000E+04    50.00       0.000       50.00       0.000       1.000         N/A         N/A              
MNWQM2A          1   6619.        171.1       50.00       171.1       50.00       1.000         N/A         N/A              
MNWQM2B          1   4070.        174.5       50.00       174.5       50.00       1.000         N/A         N/A              
MNWQM3           1   7143.        50.00       0.000       50.00       0.000       1.000         N/A         N/A     COMPOSITE
* Cell-to-well conductance values (CWC) may change during the course of a stress period
 
     4 CALLS TO PCG ROUTINE FOR TIME STEP  37 IN STRESS PERIOD    5
    15 TOTAL ITERATIONS

 HEAD/DRAWDOWN PRINTOUT FLAG = 0     TOTAL BUDGET PRINTOUT FLAG = 0
 CELL-BY-CELL FLOW TERM FLAG = 0
 REUSING PREVIOUS VALUES OF IOFLG
 
 SOLVING FOR HEAD 
 
MNW2 Well Conductance and Screen (Open Interval) Data
                              M O D E L  L A Y E R     W E L L  S C R E E N   Penetration    SKIN       CALCULATED
WELLID        Node    CWC*     top_elev    bott.elev    top_elev   bott.elev    fraction     COEFF.          B
QU1              1   6021.        176.1       50.00       176.1       50.00       1.000       1.000      2.1028E-05          
QU1              2  1.1934E+04    50.00       0.000       50.00       0.000       1.000       1.000      1.0610E-05          
QU2              1  1.5000E+04    50.00       0.000       50.00       0.000       1.000         N/A         N/A              
MNWQM2A          1   6636.        171.4       50.00       171.4       50.00       1.000         N/A         N/A              
MNWQM2B          1   4087.        174.8       50.00       174.8       50.00       1.000         N/A         N/A              
MNWQM3           1   7143.        50.00       0.000       50.00       0.000       1.000         N/A         N/A     COMPOSITE
* Cell-to-well conductance values (CWC) may change during the course of a stress period
 
     4 CALLS TO PCG ROUTINE FOR TIME STEP  38 IN STRESS PERIOD    5
    15 TOTAL ITERATIONS

 HEAD/DRAWDOWN PRINTOUT FLAG = 0     TOTAL BUDGET PRINTOUT FLAG = 0
 CELL-BY-CELL FLOW TERM FLAG = 0
 REUSING PREVIOUS VALUES OF IOFLG
 
 SOLVING FOR HEAD 
 
MNW2 Well Conductance and Screen (Open Interval) Data
                              M O D E L  L A Y E R     W E L L  S C R E E N   Penetration    SKIN       CALCULATED
WELLID        Node    CWC*     top_elev    bott.elev    top_elev   bott.elev    fraction     COEFF.          B
QU1              1   6037.        176.5       50.00       176.5       50.00       1.000       1.000      2.0974E-05          
QU1              2  1.1934E+04    50.00       0.000       50.00       0.000       1.000       1.000      1.0610E-05          
QU2              1  1.5000E+04    50.00       0.000       50.00       0.000       1.000         N/A         N/A              
MNWQM2A          1   6652.        171.7       50.00       171.7       50.00       1.000         N/A         N/A              
MNWQM2B          1   4104.        175.1       50.00       175.1       50.00       1.000         N/A         N/A              
MNWQM3           1   7143.        50.00       0.000       50.00       0.000       1.000         N/A         N/A     COMPOSITE
* Cell-to-well conductance values (CWC) may change during the course of a stress period
 
     4 CALLS TO PCG ROUTINE FOR TIME STEP  39 IN STRESS PERIOD    5
    15 TOTAL ITERATIONS

 HEAD/DRAWDOWN PRINTOUT FLAG = 0     TOTAL BUDGET PRINTOUT FLAG = 0
 CELL-BY-CELL FLOW TERM FLAG = 0
 REUSING PREVIOUS VALUES OF IOFLG
 
 SOLVING FOR HEAD 
 
MNW2 Well Conductance and Screen (Open Interval) Data
                              M O D E L  L A Y E R     W E L L  S C R E E N   Penetration    SKIN       CALCULATED
WELLID        Node    CWC*     top_elev    bott.elev    top_elev   bott.elev    fraction     COEFF.          B
QU1              1   6052.        176.8       50.00       176.8       50.00       1.000       1.000      2.0922E-05          
QU1              2  1.1934E+04    50.00       0.000       50.00       0.000       1.000       1.000      1.0610E-05          
QU2              1  1.5000E+04    50.00       0.000       50.00       0.000       1.000         N/A         N/A              
MNWQM2A          1   6668.        172.0       50.00       172.0       50.00       1.000         N/A         N/A              
MNWQM2B          1   4121.        175.4       50.00       175.4       50.00       1.000         N/A         N/A              
MNWQM3           1   7143.        50.00       0.000       50.00       0.000       1.000         N/A         N/A     COMPOSITE
* Cell-to-well conductance values (CWC) may change during the course of a stress period
 
     4 CALLS TO PCG ROUTINE FOR TIME STEP  40 IN STRESS PERIOD    5
    15 TOTAL ITERATIONS

 HEAD/DRAWDOWN PRINTOUT FLAG = 0     TOTAL BUDGET PRINTOUT FLAG = 0
 CELL-BY-CELL FLOW TERM FLAG = 0
 REUSING PREVIOUS VALUES OF IOFLG
 
 SOLVING FOR HEAD 
 
MNW2 Well Conductance and Screen (Open Interval) Data
                              M O D E L  L A Y E R     W E L L  S C R E E N   Penetration    SKIN       CALCULATED
WELLID        Node    CWC*     top_elev    bott.elev    top_elev   bott.elev    fraction     COEFF.          B
QU1              1   6067.        177.1       50.00       177.1       50.00       1.000       1.000      2.0869E-05          
QU1              2  1.1934E+04    50.00       0.000       50.00       0.000       1.000       1.000      1.0610E-05          
QU2              1  1.5000E+04    50.00       0.000       50.00       0.000       1.000         N/A         N/A              
MNWQM2A          1   6684.        172.3       50.00       172.3       50.00       1.000         N/A         N/A              
MNWQM2B          1   4137.        175.7       50.00       175.7       50.00       1.000         N/A         N/A              
MNWQM3           1   7143.        50.00       0.000       50.00       0.000       1.000         N/A         N/A     COMPOSITE
* Cell-to-well conductance values (CWC) may change during the course of a stress period
 
     4 CALLS TO PCG ROUTINE FOR TIME STEP  41 IN STRESS PERIOD    5
    15 TOTAL ITERATIONS

 HEAD/DRAWDOWN PRINTOUT FLAG = 0     TOTAL BUDGET PRINTOUT FLAG = 0
 CELL-BY-CELL FLOW TERM FLAG = 0
 REUSING PREVIOUS VALUES OF IOFLG
 
 SOLVING FOR HEAD 
 
MNW2 Well Conductance and Screen (Open Interval) Data
                              M O D E L  L A Y E R     W E L L  S C R E E N   Penetration    SKIN       CALCULATED
WELLID        Node    CWC*     top_elev    bott.elev    top_elev   bott.elev    fraction     COEFF.          B
QU1              1   6082.        177.4       50.00       177.4       50.00       1.000       1.000      2.0818E-05          
QU1              2  1.1934E+04    50.00       0.000       50.00       0.000       1.000       1.000      1.0610E-05          
QU2              1  1.5000E+04    50.00       0.000       50.00       0.000       1.000         N/A         N/A              
MNWQM2A          1   6700.        172.6       50.00       172.6       50.00       1.000         N/A         N/A              
MNWQM2B          1   4154.        176.0       50.00       176.0       50.00       1.000         N/A         N/A              
MNWQM3           1   7143.        50.00       0.000       50.00       0.000       1.000         N/A         N/A     COMPOSITE
* Cell-to-well conductance values (CWC) may change during the course of a stress period
 
     4 CALLS TO PCG ROUTINE FOR TIME STEP  42 IN STRESS PERIOD    5
    15 TOTAL ITERATIONS

 HEAD/DRAWDOWN PRINTOUT FLAG = 0     TOTAL BUDGET PRINTOUT FLAG = 0
 CELL-BY-CELL FLOW TERM FLAG = 0
 REUSING PREVIOUS VALUES OF IOFLG
 
 SOLVING FOR HEAD 
 
MNW2 Well Conductance and Screen (Open Interval) Data
                              M O D E L  L A Y E R     W E L L  S C R E E N   Penetration    SKIN       CALCULATED
WELLID        Node    CWC*     top_elev    bott.elev    top_elev   bott.elev    fraction     COEFF.          B
QU1              1   6097.        177.7       50.00       177.7       50.00       1.000       1.000      2.0767E-05          
QU1              2  1.1934E+04    50.00       0.000       50.00       0.000       1.000       1.000      1.0610E-05          
QU2              1  1.5000E+04    50.00       0.000       50.00       0.000       1.000         N/A         N/A              
MNWQM2A          1   6715.        172.9       50.00       172.9       50.00       1.000         N/A         N/A              
MNWQM2B          1   4170.        176.3       50.00       176.3       50.00       1.000         N/A         N/A              
MNWQM3           1   7143.        50.00       0.000       50.00       0.000       1.000         N/A         N/A     COMPOSITE
* Cell-to-well conductance values (CWC) may change during the course of a stress period
 
     4 CALLS TO PCG ROUTINE FOR TIME STEP  43 IN STRESS PERIOD    5
    15 TOTAL ITERATIONS

 HEAD/DRAWDOWN PRINTOUT FLAG = 0     TOTAL BUDGET PRINTOUT FLAG = 0
 CELL-BY-CELL FLOW TERM FLAG = 0
 REUSING PREVIOUS VALUES OF IOFLG
 
 SOLVING FOR HEAD 
 
MNW2 Well Conductance and Screen (Open Interval) Data
                              M O D E L  L A Y E R     W E L L  S C R E E N   Penetration    SKIN       CALCULATED
WELLID        Node    CWC*     top_elev    bott.elev    top_elev   bott.elev    fraction     COEFF.          B
QU1              1   6112.        178.0       50.00       178.0       50.00       1.000       1.000      2.0718E-05          
QU1              2  1.1934E+04    50.00       0.000       50.00       0.000       1.000       1.000      1.0610E-05          
QU2              1  1.5000E+04    50.00       0.000       50.00       0.000       1.000         N/A         N/A              
MNWQM2A          1   6730.        173.1       50.00       173.1       50.00       1.000         N/A         N/A              
MNWQM2B          1   4186.        176.6       50.00       176.6       50.00       1.000         N/A         N/A              
MNWQM3           1   7143.        50.00       0.000       50.00       0.000       1.000         N/A         N/A     COMPOSITE
* Cell-to-well conductance values (CWC) may change during the course of a stress period
 
     4 CALLS TO PCG ROUTINE FOR TIME STEP  44 IN STRESS PERIOD    5
    15 TOTAL ITERATIONS

 HEAD/DRAWDOWN PRINTOUT FLAG = 0     TOTAL BUDGET PRINTOUT FLAG = 0
 CELL-BY-CELL FLOW TERM FLAG = 0
 REUSING PREVIOUS VALUES OF IOFLG
 
 SOLVING FOR HEAD 
 
MNW2 Well Conductance and Screen (Open Interval) Data
                              M O D E L  L A Y E R     W E L L  S C R E E N   Penetration    SKIN       CALCULATED
WELLID        Node    CWC*     top_elev    bott.elev    top_elev   bott.elev    fraction     COEFF.          B
QU1              1   6126.        178.3       50.00       178.3       50.00       1.000       1.000      2.0669E-05          
QU1              2  1.1934E+04    50.00       0.000       50.00       0.000       1.000       1.000      1.0610E-05          
QU2              1  1.5000E+04    50.00       0.000       50.00       0.000       1.000         N/A         N/A              
MNWQM2A          1   6745.        173.4       50.00       173.4       50.00       1.000         N/A         N/A              
MNWQM2B          1   4202.        176.9       50.00       176.9       50.00       1.000         N/A         N/A              
MNWQM3           1   7143.        50.00       0.000       50.00       0.000       1.000         N/A         N/A     COMPOSITE
* Cell-to-well conductance values (CWC) may change during the course of a stress period
 
     4 CALLS TO PCG ROUTINE FOR TIME STEP  45 IN STRESS PERIOD    5
    15 TOTAL ITERATIONS

 HEAD/DRAWDOWN PRINTOUT FLAG = 0     TOTAL BUDGET PRINTOUT FLAG = 0
 CELL-BY-CELL FLOW TERM FLAG = 0
 REUSING PREVIOUS VALUES OF IOFLG
 
 SOLVING FOR HEAD 
 
MNW2 Well Conductance and Screen (Open Interval) Data
                              M O D E L  L A Y E R     W E L L  S C R E E N   Penetration    SKIN       CALCULATED
WELLID        Node    CWC*     top_elev    bott.elev    top_elev   bott.elev    fraction     COEFF.          B
QU1              1   6141.        178.6       50.00       178.6       50.00       1.000       1.000      2.0620E-05          
QU1              2  1.1934E+04    50.00       0.000       50.00       0.000       1.000       1.000      1.0610E-05          
QU2              1  1.5000E+04    50.00       0.000       50.00       0.000       1.000         N/A         N/A              
MNWQM2A          1   6760.        173.7       50.00       173.7       50.00       1.000         N/A         N/A              
MNWQM2B          1   4217.        177.2       50.00       177.2       50.00       1.000         N/A         N/A              
MNWQM3           1   7143.        50.00       0.000       50.00       0.000       1.000         N/A         N/A     COMPOSITE
* Cell-to-well conductance values (CWC) may change during the course of a stress period
 
     4 CALLS TO PCG ROUTINE FOR TIME STEP  46 IN STRESS PERIOD    5
    15 TOTAL ITERATIONS

 HEAD/DRAWDOWN PRINTOUT FLAG = 0     TOTAL BUDGET PRINTOUT FLAG = 0
 CELL-BY-CELL FLOW TERM FLAG = 0
 REUSING PREVIOUS VALUES OF IOFLG
 
 SOLVING FOR HEAD 
 
MNW2 Well Conductance and Screen (Open Interval) Data
                              M O D E L  L A Y E R     W E L L  S C R E E N   Penetration    SKIN       CALCULATED
WELLID        Node    CWC*     top_elev    bott.elev    top_elev   bott.elev    fraction     COEFF.          B
QU1              1   6155.        178.9       50.00       178.9       50.00       1.000       1.000      2.0573E-05          
QU1              2  1.1934E+04    50.00       0.000       50.00       0.000       1.000       1.000      1.0610E-05          
QU2              1  1.5000E+04    50.00       0.000       50.00       0.000       1.000         N/A         N/A              
MNWQM2A          1   6775.        174.0       50.00       174.0       50.00       1.000         N/A         N/A              
MNWQM2B          1   4233.        177.4       50.00       177.4       50.00       1.000         N/A         N/A              
MNWQM3           1   7143.        50.00       0.000       50.00       0.000       1.000         N/A         N/A     COMPOSITE
* Cell-to-well conductance values (CWC) may change during the course of a stress period
 
     4 CALLS TO PCG ROUTINE FOR TIME STEP  47 IN STRESS PERIOD    5
    15 TOTAL ITERATIONS

 HEAD/DRAWDOWN PRINTOUT FLAG = 0     TOTAL BUDGET PRINTOUT FLAG = 0
 CELL-BY-CELL FLOW TERM FLAG = 0
 REUSING PREVIOUS VALUES OF IOFLG
 
 SOLVING FOR HEAD 
 
MNW2 Well Conductance and Screen (Open Interval) Data
                              M O D E L  L A Y E R     W E L L  S C R E E N   Penetration    SKIN       CALCULATED
WELLID        Node    CWC*     top_elev    bott.elev    top_elev   bott.elev    fraction     COEFF.          B
QU1              1   6169.        179.2       50.00       179.2       50.00       1.000       1.000      2.0526E-05          
QU1              2  1.1934E+04    50.00       0.000       50.00       0.000       1.000       1.000      1.0610E-05          
QU2              1  1.5000E+04    50.00       0.000       50.00       0.000       1.000         N/A         N/A              
MNWQM2A          1   6790.        174.2       50.00       174.2       50.00       1.000         N/A         N/A              
MNWQM2B          1   4248.        177.7       50.00       177.7       50.00       1.000         N/A         N/A              
MNWQM3           1   7143.        50.00       0.000       50.00       0.000       1.000         N/A         N/A     COMPOSITE
* Cell-to-well conductance values (CWC) may change during the course of a stress period
 
     4 CALLS TO PCG ROUTINE FOR TIME STEP  48 IN STRESS PERIOD    5
    15 TOTAL ITERATIONS

 HEAD/DRAWDOWN PRINTOUT FLAG = 0     TOTAL BUDGET PRINTOUT FLAG = 0
 CELL-BY-CELL FLOW TERM FLAG = 0
 REUSING PREVIOUS VALUES OF IOFLG
 
 SOLVING FOR HEAD 
 
MNW2 Well Conductance and Screen (Open Interval) Data
                              M O D E L  L A Y E R     W E L L  S C R E E N   Penetration    SKIN       CALCULATED
WELLID        Node    CWC*     top_elev    bott.elev    top_elev   bott.elev    fraction     COEFF.          B
QU1              1   6183.        179.5       50.00       179.5       50.00       1.000       1.000      2.0480E-05          
QU1              2  1.1934E+04    50.00       0.000       50.00       0.000       1.000       1.000      1.0610E-05          
QU2              1  1.5000E+04    50.00       0.000       50.00       0.000       1.000         N/A         N/A              
MNWQM2A          1   6804.        174.5       50.00       174.5       50.00       1.000         N/A         N/A              
MNWQM2B          1   4263.        178.0       50.00       178.0       50.00       1.000         N/A         N/A              
MNWQM3           1   7143.        50.00       0.000       50.00       0.000       1.000         N/A         N/A     COMPOSITE
* Cell-to-well conductance values (CWC) may change during the course of a stress period
 
     4 CALLS TO PCG ROUTINE FOR TIME STEP  49 IN STRESS PERIOD    5
    15 TOTAL ITERATIONS

 HEAD/DRAWDOWN PRINTOUT FLAG = 0     TOTAL BUDGET PRINTOUT FLAG = 0
 CELL-BY-CELL FLOW TERM FLAG = 0
 REUSING PREVIOUS VALUES OF IOFLG
 
 SOLVING FOR HEAD 
 
MNW2 Well Conductance and Screen (Open Interval) Data
                              M O D E L  L A Y E R     W E L L  S C R E E N   Penetration    SKIN       CALCULATED
WELLID        Node    CWC*     top_elev    bott.elev    top_elev   bott.elev    fraction     COEFF.          B
QU1              1   6197.        179.8       50.00       179.8       50.00       1.000       1.000      2.0434E-05          
QU1              2  1.1934E+04    50.00       0.000       50.00       0.000       1.000       1.000      1.0610E-05          
QU2              1  1.5000E+04    50.00       0.000       50.00       0.000       1.000         N/A         N/A              
MNWQM2A          1   6818.        174.7       50.00       174.7       50.00       1.000         N/A         N/A              
MNWQM2B          1   4278.        178.3       50.00       178.3       50.00       1.000         N/A         N/A              
MNWQM3           1   7143.        50.00       0.000       50.00       0.000       1.000         N/A         N/A     COMPOSITE
* Cell-to-well conductance values (CWC) may change during the course of a stress period
 
     4 CALLS TO PCG ROUTINE FOR TIME STEP  50 IN STRESS PERIOD    5
    15 TOTAL ITERATIONS

 HEAD/DRAWDOWN PRINTOUT FLAG = 1     TOTAL BUDGET PRINTOUT FLAG = 1
 CELL-BY-CELL FLOW TERM FLAG = 1
 REUSING PREVIOUS VALUES OF IOFLG

 Nodal information for all MNW2 wells, PERIOD =    5  STEP =   50
WELLID                NODE   Lay   Row   Col        Totim        Q-node         hwell         hcell    Seepage elev.
QU1                      1     1     3     3   1.097010E+04 -2.371217E+04  1.762789E+02  1.800972E+02
QU1                      2     2     3     3   1.097010E+04  3.712174E+03  1.762789E+02  1.759678E+02
QU2                      1     2    13     7   1.097010E+04 -6.685000E+04  1.562097E+02  1.606664E+02
MNWQM2A                  1     1     6     6   1.097010E+04 -2.840869E+03  1.745874E+02  1.750032E+02
MNWQM2B                  1     1     9     3   1.097010E+04 -2.840869E+03  1.778726E+02  1.785344E+02
MNWQM3                   1     2    15     9   1.097010E+04 -2.971347E+03  1.580549E+02  1.584709E+02

     Summary information for MNW2 wells
WELLID                    Totim            Qin           Qout           Qnet          hwell
QU1                     10970.1       -23712.2        3712.17       -20000.0        176.279    
QU2                     10970.1       -66850.0        0.00000       -66850.0        156.210    
MNWQM2A                 10970.1       -2840.87        0.00000       -2840.87        174.587    
MNWQM2B                 10970.1       -2840.87        0.00000       -2840.87        177.873    
MNWQM3                  10970.1       -2971.35        0.00000       -2971.35        158.055    
 
 UBUDSV SAVING "            MNW2" ON UNIT 90 AT TIME STEP 50, STRESS PERIOD    5
1
              HEAD IN LAYER   1 AT END OF TIME STEP  50 IN STRESS PERIOD    5
  ---------------------------------------------------------------------------

              1             2             3             4             5             6             7             8             9
             10            11            12            13            14
 ..............................................................................................................................
   1    182.599       182.147       181.283       180.108       178.546       176.673       174.767       172.531       169.896    
        167.020       163.337       158.234       150.766       139.000    
   2    182.482       181.967       180.961       179.817       178.111       175.874       174.206       171.929       168.973    
        166.444       162.933       157.855       150.276       138.000    
   3    182.303       181.666       180.097       179.372       177.397       173.541       173.289       170.921       166.296    
        165.403       162.231       157.180       149.537       137.000    
   4    182.176       181.648       180.613       179.416       177.627       175.266       173.422       170.900       167.678    
        165.092       161.477       156.219       148.592       136.000    
   5    182.000       181.529       180.613       179.332       177.611       175.496       173.228       170.415       167.002    
        164.244       160.346       154.618       147.369       135.000    
   6    181.732       181.266       180.350       179.006       177.224       175.003       172.589       169.339       164.180    
        162.885       158.870       151.255       145.887       134.000    
   7    181.369       180.875       179.893       178.436       176.508       174.192       171.754       168.809       165.296    
        162.477       158.522       152.735       145.494       133.000    
   8    180.935       180.386       179.278       177.632       175.364       172.554       170.354       167.564       164.150    
        161.453       157.718       152.290       144.781       132.000    
   9    180.474       179.848       178.534       176.681       173.830       169.136       168.337       165.552       160.586    
        159.648       156.308       150.587       143.675       131.000    
  10    180.044       179.364       177.976       175.872       172.976       169.488       166.886       164.034       160.796    
        158.253       154.825       149.838       142.592       130.000    
  11    179.683       178.932       177.379       174.937       171.541       167.490       164.083       161.106       158.287    
        155.564       152.293       147.788       140.967       129.000    
  12    179.445       178.621       176.866       173.928       169.377       162.994       158.702       155.662       153.162    
        150.707       147.911       144.133       138.398       128.000    
  13    179.391       178.537       176.670       173.332       167.175       153.195       148.438       145.836       144.065    
        142.146       140.255       137.584       133.964       127.000    
  14    179.550       178.751       177.047       174.186       169.734       163.442       159.151       156.063       153.460    
        150.785       147.697       143.549       137.289       126.000    
  15    179.879       179.181       177.738       175.466       172.311       168.495       165.050       161.990       159.032    
        155.828       151.958       146.735       138.837       125.000    
  16    180.300       179.704       178.499       176.676       174.273       171.453       168.542       165.594       162.471    
        158.911       154.500       148.520       139.536       124.000    
  17    180.739       180.225       179.198       177.672       175.687       173.332       170.718       167.856       164.639    
        160.838       156.047       149.529       139.782       123.000    
  18    181.140       180.684       179.778       178.435       176.684       174.566       172.111       169.297       166.016    
        162.048       156.987       150.080       139.769       122.000    
  19    181.465       181.047       180.216       178.983       177.362       175.368       172.997       170.205       166.878    
        162.792       157.540       150.348       139.601       121.000    
  20    181.692       181.296       180.509       179.336       177.784       175.853       173.524       170.740       167.381    
        163.218       157.837       150.443       139.355       120.000    
  21    181.808       181.423       180.655       179.509       177.987       176.083       173.771       170.989       167.612    
        163.411       157.963       150.452       139.123       119.000    
1
              HEAD IN LAYER   2 AT END OF TIME STEP  50 IN STRESS PERIOD    5
  ---------------------------------------------------------------------------

              1             2             3             4             5             6             7             8             9
             10            11            12            13            14
 ..............................................................................................................................
   1    177.268       176.902       176.181       175.118       173.745       172.101       170.235       168.160       165.905    
        163.523       161.052       158.591       156.363       154.815    
   2    177.189       176.822       176.097       175.015       173.616       171.943       170.068       167.977       165.699    
        163.321       160.853       158.388       156.149       154.585    
   3    177.039       176.670       175.968       174.827       173.386       171.658       169.774       167.650       165.322    
        162.950       160.478       158.002       155.751       154.174    
   4    176.818       176.437       175.685       174.562       173.111       171.374       169.427       167.257       164.906    
        162.476       159.963       157.458       155.199       153.617    
   5    176.534       176.141       175.364       174.222       172.746       170.978       168.970       166.740       164.340    
        161.867       159.313       156.774       154.520       152.946    
   6    176.188       175.779       174.973       173.790       172.267       170.446       168.379       166.090       163.624    
        161.141       158.563       155.984       153.757       152.197    
   7    175.789       175.358       174.509       173.267       171.672       169.781       167.662       165.344       162.880    
        160.366       157.789       155.238       152.982       151.405    
   8    175.358       174.897       173.990       172.666       170.969       168.979       166.804       164.457       161.984    
        159.480       156.927       154.406       152.152       150.570    
   9    174.922       174.427       173.449       172.023       170.196       168.062       165.823       163.437       160.939    
        158.479       155.969       153.483       151.265       149.700    
  10    174.520       173.987       172.934       171.393       169.428       167.162       164.781       162.353       159.886    
        157.430       154.958       152.534       150.358       148.824    
  11    174.191       173.620       172.487       170.814       168.666       166.183       163.613       161.166       158.747    
        156.329       153.912       151.561       149.458       147.982    
  12    173.976       173.375       172.171       170.369       168.000       165.184       162.281       159.959       157.645    
        155.292       152.934       150.656       148.640       147.246    
  13    173.907       173.295       172.063       170.195       167.667       164.455       160.666       159.100       156.958    
        154.642       152.295       150.031       148.054       146.719    
  14    173.994       173.399       172.207       170.419       168.060       165.240       162.306       159.924       157.520    
        155.065       152.578       150.156       148.000       146.501    
  15    174.213       173.655       172.545       170.901       168.776       166.289       163.658       161.093       158.471    
        155.875       153.204       150.568       148.182       146.493    
  16    174.519       174.004       172.984       171.484       169.559       167.299       164.828       162.243       159.548    
        156.765       153.899       151.048       148.445       146.588    
  17    174.859       174.383       173.443       172.062       170.285       168.174       165.802       163.226       160.471    
        157.558       154.528       151.493       148.704       146.708    
  18    175.186       174.741       173.862       172.570       170.895       168.881       166.571       164.004       161.203    
        158.196       155.038       151.853       148.916       146.807    
  19    175.461       175.039       174.204       172.971       171.363       169.409       167.138       164.574       161.740    
        158.666       155.412       152.115       149.063       146.864    
  20    175.659       175.251       174.443       173.246       171.678       169.759       167.509       164.946       162.090    
        158.970       155.653       152.279       149.145       146.878    
  21    175.761       175.361       174.565       173.386       171.837       169.933       167.693       165.129       162.261    
        159.120       155.770       152.355       149.176       146.866    

 HEAD WILL BE SAVED ON UNIT   89 AT END OF TIME STEP   50, STRESS PERIOD    5
1
  VOLUMETRIC BUDGET FOR ENTIRE MODEL AT END OF TIME STEP   50, STRESS PERIOD   5
  ------------------------------------------------------------------------------

     CUMULATIVE VOLUMES      L**3       RATES FOR THIS TIME STEP      L**3/T
     ------------------                 ------------------------

           IN:                                      IN:
           ---                                      ---
             STORAGE =   509473231.8408               STORAGE =           0.0000
       CONSTANT HEAD =           0.0000         CONSTANT HEAD =           0.0000
               WELLS =           0.0000                 WELLS =           0.0000
              DRAINS =           0.0000                DRAINS =           0.0000
            RECHARGE = 30834838125.0000              RECHARGE =     4777500.0000
                MNW2 =    74788451.4366                  MNW2 =        3712.1738
       MANAGED WELLS =           0.0000         MANAGED WELLS =           0.0000

            TOTAL IN = 31419099808.2775              TOTAL IN =     4781212.1738

          OUT:                                     OUT:
          ----                                     ----
             STORAGE =  1253936443.3718               STORAGE =     1174191.6467
       CONSTANT HEAD = 15989856191.3833         CONSTANT HEAD =     1991871.8697
               WELLS =  4400107110.0000                 WELLS =      401100.0000
              DRAINS =  8909642359.6433                DRAINS =     1094833.4163
            RECHARGE =           0.0000              RECHARGE =           0.0000
                MNW2 =   746151415.4069                  MNW2 =       99215.2581
       MANAGED WELLS =   119402000.0000         MANAGED WELLS =       20000.0000

           TOTAL OUT = 31419095519.8054             TOTAL OUT =     4781212.1909

            IN - OUT =        4288.4721              IN - OUT =      -1.7112E-02

 PERCENT DISCREPANCY =           0.00     PERCENT DISCREPANCY =           0.00






         TIME SUMMARY AT END OF TIME STEP   50 IN STRESS PERIOD    5
                    SECONDS     MINUTES      HOURS       DAYS        YEARS
                    -----------------------------------------------------------
   TIME STEP LENGTH 1.26161E+06  21027.      350.45      14.602     3.99781E-02
 STRESS PERIOD TIME 6.30806E+07 1.05134E+06  17522.      730.10      1.9989    
         TOTAL TIME 9.47817E+08 1.57969E+07 2.63282E+05  10970.      30.034    
1

 Run end date and time (yyyy/mm/dd hh:mm:ss): 2013/09/17  8:56:50
 Elapsed run time:  1.976 Seconds

