                                  MODFLOW-2005     
      U.S. GEOLOGICAL SURVEY MODULAR FINITE-DIFFERENCE GROUND-WATER FLOW MODEL
                VERSION MF2005_GWM 1.0.1 081108,FROM MF05V1.5.00


 REWOUND ..\data\supply.dis
 FILE TYPE:DIS   UNIT   11

 REWOUND ..\data\supply.ba6
 FILE TYPE:BAS6   UNIT   12

 REWOUND ..\data\supply.bc6
 FILE TYPE:BCF6   UNIT   13

 REWOUND ..\data\supply.rch
 FILE TYPE:RCH   UNIT   15

 REWOUND ..\data\supply.str
 FILE TYPE:STR   UNIT   16

 REWOUND ..\data\supply.oc
 FILE TYPE:OC   UNIT   17

 REWOUND ..\data\supply.pcg
 FILE TYPE:PCG   UNIT   18

 REWOUND ..\data\supply2.gwm
 FILE TYPE:GWM   UNIT   19

 BAS -- BASIC PACKAGE, VERSION 7, 5/2/2005 INPUT READ FROM UNIT   12

 DISCRETIZATION INPUT DATA READ FROM UNIT   11
    1 LAYERS        25 ROWS        30 COLUMNS
   12 STRESS PERIOD(S) IN SIMULATION
 MODEL TIME UNIT IS DAYS
 MODEL LENGTH UNIT IS UNDEFINED
  Confining bed flag for each layer:
   0

                     DELR =   200.000    

                     DELC =   200.000    

 TOP ELEVATION OF LAYER 1 =   100.000    

   MODEL LAYER BOTTOM EL. =   0.00000     FOR LAYER   1


 STRESS PERIOD     LENGTH       TIME STEPS     MULTIPLIER FOR DELT    SS FLAG
 ----------------------------------------------------------------------------
        1         92.00000          1                    1.500         TR
        2         91.00000          1                    1.500         TR
        3         91.00000          1                    1.500         TR
        4         91.00000          1                    1.500         TR
        5         92.00000          1                    1.500         TR
        6         91.00000          1                    1.500         TR
        7         91.00000          1                    1.500         TR
        8         91.00000          1                    1.500         TR
        9         92.00000          1                    1.500         TR
       10         91.00000          1                    1.500         TR
       11         91.00000          1                    1.500         TR
       12         91.00000          1                    1.500         TR

 TRANSIENT SIMULATION



 
 #MODOFC transient water supply sample problem                                   
 #                                                                               
 THE FREE FORMAT OPTION HAS BEEN SELECTED



                     BOUNDARY ARRAY FOR LAYER   1
 READING ON UNIT   12 WITH FORMAT: (20I4)              

 AQUIFER HEAD WILL BE SET TO  0.0000     AT ALL NO-FLOW NODES (IBOUND=0).



                       INITIAL HEAD FOR LAYER   1
 READING ON UNIT   12 WITH FORMAT: (10F13.0)           

 OUTPUT CONTROL IS SPECIFIED EVERY TIME STEP
 HEAD PRINT FORMAT CODE IS  19    DRAWDOWN PRINT FORMAT CODE IS   0
 HEADS WILL BE SAVED ON UNIT   10    DRAWDOWNS WILL BE SAVED ON UNIT   10

 BCF -- BLOCK-CENTERED FLOW PACKAGE, VERSION 7, 5/2/2005
         INPUT READ FROM UNIT 13
 TRANSIENT SIMULATION
 HEAD AT CELLS THAT CONVERT TO DRY=   0.0000    
 WETTING CAPABILITY IS NOT ACTIVE
      LAYER  LAYER-TYPE CODE     INTERBLOCK T
      --------------------------------------------
         1            0          0 -- HARMONIC    

 COLUMN TO ROW ANISOTROPY =   1.00000    

     PRIMARY STORAGE COEF =  5.000000E-02 FOR LAYER   1

     TRANSMIS. ALONG ROWS =   5000.00     FOR LAYER   1

 RCH -- RECHARGE PACKAGE, VERSION 7, 5/2/2005 INPUT READ FROM UNIT   15
 No named parameters
 OPTION 1 -- RECHARGE TO TOP LAYER


     0 Recharge parameters

 STR -- STREAM PACKAGE, VERSION 7, 5/2/2005 INPUT READ FROM UNIT   16
 No named parameters
 MAXIMUM OF     40 ACTIVE STREAM NODES AT ONE TIME
 NUMBER OF STREAM SEGMENTS IS      3
 NUMBER OF STREAM TRIBUTARIES IS      2
 STREAM STAGES WILL BE CALCULATED USING A CONSTANT OF **********


     0 Stream parameters
1
                            STRESS PERIOD NO.    1, LENGTH =   92.00000    
                            -----------------------------------------------

                              NUMBER OF TIME STEPS =     1

                               MULTIPLIER FOR DELT =     1.500

                            INITIAL TIME STEP SIZE =   92.00000    

                 RECHARGE =  5.000000E-04

    LAYER   ROW    COL    SEGMENT   REACH   STREAMFLOW      STREAM    STREAMBED     STREAMBED BOT  STREAMBED TOP
                           NUMBER   NUMBER                   STAGE   CONDUCTANCE      ELEVATION      ELEVATION
   --------------------------------------------------------------------------------------------------------------
       1     13      1        1        1        0.1000E+06   51.50     0.2000E+05        47.50        48.50    
       1     13      2        1        2         0.000       51.00     0.2000E+05        47.00        48.00    
       1     14      3        1        3         0.000       20.50     0.2000E+05        46.50        47.50    
       1     15      4        1        4         0.000       20.00     0.2000E+05        46.00        47.00    
       1     16      5        1        5         0.000       49.50     0.2000E+05        45.50        46.50    
       1     16      6        1        6         0.000       49.00     0.2000E+05        45.00        46.00    
       1     16      7        1        7         0.000       48.50     0.2000E+05        44.50        45.50    
       1     16      8        1        8         0.000       48.00     0.2000E+05        44.00        45.00    
       1     16      9        1        9         0.000       47.50     0.2000E+05        43.50        44.50    
       1     16     10        1       10         0.000       47.00     0.2000E+05        40.00        44.00    
       1     16     11        1       11         0.000       46.50     0.2000E+05        42.50        43.50    
       1     16     12        1       12         0.000       46.00     0.2000E+05        42.00        40.00    
       1     15     13        1       13         0.000       45.50     0.2000E+05        41.50        42.50    
       1     14     14        1       14         0.000       45.00     0.2000E+05        41.00        42.00    
       1     13     15        1       15         0.000       44.50     0.2000E+05        40.50        41.50    
       1     12     16        1       16         0.000       44.00     0.2000E+05        40.00        41.00    
       1     12     17        1       17         0.000       43.50     0.2000E+05        39.50        40.50    
       1     12     18        1       18         0.000       40.00     0.2000E+05        39.00        40.00    
       1     12     19        1       19         0.000       42.50     0.2000E+05        38.50        39.50    
       1     13     20        1       20         0.000       42.00     0.2000E+05        38.00        39.00    
       1     14     21        1       21         0.000       41.50     0.2000E+05        37.50        38.50    
       1     14     22        1       22         0.000       41.00     0.2000E+05        37.00        38.00    
       1      9     30        2        1        0.5000E+05   30.00     0.2000E+05        39.25        40.25    
       1      9     29        2        2         0.000       30.00     0.2000E+05        39.00        40.00    
       1      9     28        2        3         0.000       30.00     0.2000E+05        38.75        39.75    
       1      9     27        2        4         0.000       30.00     0.2000E+05        38.50        39.50    
       1     10     26        2        5         0.000       30.00     0.2000E+05        38.25        39.25    
       1     11     25        2        6         0.000       30.00     0.2000E+05        38.00        39.00    
       1     12     24        2        7         0.000       30.00     0.2000E+05        37.75        38.75    
       1     13     23        2        8         0.000       30.00     0.2000E+05        37.50        38.50    
       1     14     22        2        9         0.000       41.00     0.2000E+05        37.00        38.00    
       1     14     22        3        1        -1.000       41.00     0.2000E+05        37.00        38.00    
       1     15     23        3        2         0.000       40.00     0.2000E+05        36.00        37.00    
       1     15     24        3        3         0.000       39.00     0.2000E+05        35.00        36.00    
       1     15     25        3        4         0.000       38.00     0.2000E+05        34.00        35.00    
       1     15     26        3        5         0.000       37.00     0.2000E+05        33.00        34.00    
       1     16     27        3        6         0.000       36.00     0.2000E+05        32.00        33.00    
       1     17     28        3        7         0.000       35.00     0.2000E+05        31.00        32.00    
       1     18     29        3        8         0.000       34.00     0.2000E+05        30.00        31.00    
       1     18     30        3        9         0.000       30.00     0.2000E+05        29.00        30.00    

     40 STREAM REACHES

    LAYER   ROW    COL    SEGMENT   REACH        STREAM             STREAM          ROUGH
                           NUMBER   NUMBER        WIDTH              SLOPE          COEF.
   --------------------------------------------------------------------------------------------------------------
       1     13      1        1        1          20.00           0.2500E-02      0.5000E-01
       1     13      2        1        2          20.00           0.2500E-02      0.5000E-01
       1     14      3        1        3          20.00           0.2500E-02      0.5000E-01
       1     15      4        1        4          20.00           0.2500E-02      0.5000E-01
       1     16      5        1        5          20.00           0.2500E-02      0.5000E-01
       1     16      6        1        6          20.00           0.2500E-02      0.5000E-01
       1     16      7        1        7          20.00           0.2500E-02      0.5000E-01
       1     16      8        1        8          20.00           0.2500E-02      0.5000E-01
       1     16      9        1        9          20.00           0.2500E-02      0.5000E-01
       1     16     10        1       10          20.00           0.2500E-02      0.5000E-01
       1     16     11        1       11          20.00           0.2500E-02      0.5000E-01
       1     16     12        1       12          20.00           0.2500E-02      0.5000E-01
       1     15     13        1       13          20.00           0.2500E-02      0.5000E-01
       1     14     14        1       14          20.00           0.2500E-02      0.5000E-01
       1     13     15        1       15          20.00           0.2500E-02      0.5000E-01
       1     12     16        1       16          20.00           0.2500E-02      0.5000E-01
       1     12     17        1       17          20.00           0.2500E-02      0.5000E-01
       1     12     18        1       18          20.00           0.2500E-02      0.5000E-01
       1     12     19        1       19          20.00           0.2500E-02      0.5000E-01
       1     13     20        1       20          20.00           0.2500E-02      0.5000E-01
       1     14     21        1       21          20.00           0.2500E-02      0.5000E-01
       1     14     22        1       22          20.00           0.2500E-02      0.5000E-01
       1      9     30        2        1          20.00           0.1000E-02      0.5000E-01
       1      9     29        2        2          20.00           0.1000E-02      0.5000E-01
       1      9     28        2        3          20.00           0.1000E-02      0.5000E-01
       1      9     27        2        4          20.00           0.1000E-02      0.5000E-01
       1     10     26        2        5          20.00           0.1000E-02      0.5000E-01
       1     11     25        2        6          20.00           0.1000E-02      0.5000E-01
       1     12     24        2        7          20.00           0.1000E-02      0.5000E-01
       1     13     23        2        8          20.00           0.1000E-02      0.5000E-01
       1     14     22        2        9          20.00           0.1000E-02      0.5000E-01
       1     14     22        3        1          20.00           0.2500E-02      0.5000E-01
       1     15     23        3        2          20.00           0.2500E-02      0.5000E-01
       1     15     24        3        3          20.00           0.2500E-02      0.5000E-01
       1     15     25        3        4          20.00           0.2500E-02      0.5000E-01
       1     15     26        3        5          20.00           0.2500E-02      0.5000E-01
       1     16     27        3        6          20.00           0.2500E-02      0.5000E-01
       1     17     28        3        7          20.00           0.2500E-02      0.5000E-01
       1     18     29        3        8          20.00           0.2500E-02      0.5000E-01
       1     18     30        3        9          20.00           0.2500E-02      0.5000E-01

                              MAXIMUM NUMBER OF TRIBUTARY STREAMS IS      2

                     STREAM SEGMENT               TRIBUTARY STREAM SEGMENT NUMBERS
                        1                        0    0
                        2                        0    0
                        3                        1    2
 
 SOLVING FOR HEAD 


    10 CALLS TO PCG ROUTINE FOR TIME STEP   1 IN STRESS PERIOD    1
    42 TOTAL ITERATIONS

 HEAD/DRAWDOWN PRINTOUT FLAG = 1     TOTAL BUDGET PRINTOUT FLAG = 1
 CELL-BY-CELL FLOW TERM FLAG = 1

 OUTPUT FLAGS FOR ALL LAYERS ARE THE SAME:
   HEAD    DRAWDOWN  HEAD  DRAWDOWN
 PRINTOUT  PRINTOUT  SAVE    SAVE
 ----------------------------------
     0         0       0       0

            LAYER      ROW     COLUMN     STREAM    REACH      FLOW INTO     FLOW INTO     FLOW OUT OF     HEAD IN
                                          NUMBER    NUMBER    STREAM REACH    AQUIFER      STREAM REACH     STREAM


               1        13         1         1         1      100000.0      -31083.67       131083.7          48.66
               1        13         2         1         2      131083.7      -41599.64       172683.3          48.18
               1        14         3         1         3      172683.3      -37163.62       209846.9          47.71
               1        15         4         1         4      209846.9      -36217.35       246064.3          47.23
               1        16         5         1         5      246064.3      -37144.01       283208.3          46.76
               1        16         6         1         6      283208.3      -32427.54       315635.8          46.28
               1        16         7         1         7      315635.8      -32114.33       347750.2          45.79
               1        16         8         1         8      347750.2      -32072.19       379822.3          45.31
               1        16         9         1         9      379822.3      -31654.99       411477.3          44.83
               1        16        10         1        10      411477.3      -30362.52       441839.9          44.34
               1        16        11         1        11      441839.9      -25784.64       467624.5          43.85
               1        16        12         1        12      467624.5      -60855.86       528480.4          40.37
               1        15        13         1        13      528480.4      -31028.53       559508.9          42.89
               1        14        14         1        14      559508.9      -34424.44       593933.3          42.41
               1        13        15         1        15      593933.3      -37855.61       631788.9          41.92
               1        12        16         1        16      631788.9      -45608.61       677397.5          41.44
               1        12        17         1        17      677397.5      -35325.63       712723.2          40.96
               1        12        18         1        18      712723.2      -33964.98       746688.2          40.47
               1        12        19         1        19      746688.2      -39220.96       785909.1          39.98
               1        13        20         1        20      785909.1      -28742.32       814651.4          39.50
               1        14        21         1        21      814651.4      -22041.45       836692.9          39.01
               1        14        22         1        22      836692.9      -8539.162       845232.1          38.51
               1         9        30         2         1      50000.00      -29481.69       79481.69          40.39
               1         9        29         2         2      79481.69      -31905.98       111387.7          40.18
               1         9        28         2         3      111387.7      -36210.18       147597.8          39.97
               1         9        27         2         4      147597.8      -50762.03       198359.9          39.76
               1        10        26         2         5      198359.9      -37128.98       235488.9          39.55
               1        11        25         2         6      235488.9      -28690.96       264179.8          39.33
               1        12        24         2         7      264179.8      -21663.31       285843.1          39.09
               1        13        23         2         8      285843.1      -15395.40       301238.5          38.86
               1        14        22         2         9      301238.5      -11415.25       312653.8          38.37
               1        14        22         3         1      1157886.      -6353.412       1164239.          38.62
               1        15        23         3         2      1164239.      -22704.28       1186944.          37.63
               1        15        24         3         3      1186944.      -20555.04       1207499.          36.63
               1        15        25         3         4      1207499.      -21181.20       1228680.          35.64
               1        15        26         3         5      1228680.      -25269.21       1253949.          34.65
               1        16        27         3         6      1253949.      -33101.28       1287050.          33.66
               1        17        28         3         7      1287050.      -40384.64       1327435.          32.67
               1        18        29         3         8      1327435.      -51129.66       1378565.          31.68
               1        18        30         3         9      1378565.      -47934.56       1426499.          30.70
1
  VOLUMETRIC BUDGET FOR ENTIRE MODEL AT END OF TIME STEP  1 IN STRESS PERIOD   1
  ------------------------------------------------------------------------------

     CUMULATIVE VOLUMES      L**3       RATES FOR THIS TIME STEP      L**3/T
     ------------------                 ------------------------

           IN:                                      IN:
           ---                                      ---
             STORAGE =    19158183.9070               STORAGE =      208241.1294
       CONSTANT HEAD =   101930547.9544         CONSTANT HEAD =     1107940.7386
            RECHARGE =     1269600.0000              RECHARGE =       13800.0000
      STREAM LEAKAGE =           0.0000        STREAM LEAKAGE =           0.0000
        MANAGED FLOW =           0.0000          MANAGED FLOW =           0.0000

            TOTAL IN =   122358331.8614              TOTAL IN =     1329981.8681

          OUT:                                     OUT:
          ----                                     ----
             STORAGE =           0.0000               STORAGE =           0.0000
       CONSTANT HEAD =           0.0000         CONSTANT HEAD =           0.0000
            RECHARGE =           0.0000              RECHARGE =           0.0000
      STREAM LEAKAGE =   117437919.6778        STREAM LEAKAGE =     1276499.1269
        MANAGED FLOW =     4920463.2227          MANAGED FLOW =       53483.2959

           TOTAL OUT =   122358382.9004             TOTAL OUT =     1329982.4228

            IN - OUT =         -51.0390              IN - OUT =          -0.5548

 PERCENT DISCREPANCY =           0.00     PERCENT DISCREPANCY =           0.00






          TIME SUMMARY AT END OF TIME STEP   1 IN STRESS PERIOD    1
                    SECONDS     MINUTES      HOURS       DAYS        YEARS
                    -----------------------------------------------------------
   TIME STEP LENGTH 7.94880E+06 1.32480E+05  2208.0      92.000     0.25188    
 STRESS PERIOD TIME 7.94880E+06 1.32480E+05  2208.0      92.000     0.25188    
         TOTAL TIME 7.94880E+06 1.32480E+05  2208.0      92.000     0.25188    
1
1
                            STRESS PERIOD NO.    2, LENGTH =   91.00000    
                            -----------------------------------------------

                              NUMBER OF TIME STEPS =     1

                               MULTIPLIER FOR DELT =     1.500

                            INITIAL TIME STEP SIZE =   91.00000    

                 RECHARGE =  2.000000E-03

REUSING STREAM NODES FROM LAST STRESS PERIOD
 
 SOLVING FOR HEAD 


     8 CALLS TO PCG ROUTINE FOR TIME STEP   1 IN STRESS PERIOD    2
    30 TOTAL ITERATIONS

 HEAD/DRAWDOWN PRINTOUT FLAG = 1     TOTAL BUDGET PRINTOUT FLAG = 1
 CELL-BY-CELL FLOW TERM FLAG = 1

 OUTPUT FLAGS FOR ALL LAYERS ARE THE SAME:
   HEAD    DRAWDOWN  HEAD  DRAWDOWN
 PRINTOUT  PRINTOUT  SAVE    SAVE
 ----------------------------------
     0         0       0       0

            LAYER      ROW     COLUMN     STREAM    REACH      FLOW INTO     FLOW INTO     FLOW OUT OF     HEAD IN
                                          NUMBER    NUMBER    STREAM REACH    AQUIFER      STREAM REACH     STREAM


               1        13         1         1         1      100000.0      -27966.63       127966.6          48.65
               1        13         2         1         2      127966.6      -37911.03       165877.7          48.18
               1        14         3         1         3      165877.7      -33380.81       199258.5          47.70
               1        15         4         1         4      199258.5      -32576.85       231835.3          47.23
               1        16         5         1         5      231835.3      -34003.45       265838.8          46.75
               1        16         6         1         6      265838.8      -29664.72       295503.5          46.26
               1        16         7         1         7      295503.5      -29372.83       324876.3          45.78
               1        16         8         1         8      324876.3      -29332.56       354208.9          45.30
               1        16         9         1         9      354208.9      -28945.23       383154.1          44.81
               1        16        10         1        10      383154.1      -27725.66       410879.8          44.33
               1        16        11         1        11      410879.8      -23270.20       434150.0          43.84
               1        16        12         1        12      434150.0      -58400.01       492550.0          40.36
               1        15        13         1        13      492550.0      -28466.98       521017.0          42.88
               1        14        14         1        14      521017.0      -31982.12       552999.1          42.39
               1        13        15         1        15      552999.1      -35339.46       588338.5          41.91
               1        12        16         1        16      588338.5      -42728.31       631066.8          41.42
               1        12        17         1        17      631066.8      -33188.47       664255.3          40.94
               1        12        18         1        18      664255.3      -31810.74       696066.1          40.45
               1        12        19         1        19      696066.1      -36471.72       732537.8          39.96
               1        13        20         1        20      732537.8      -26362.07       758899.9          39.48
               1        14        21         1        21      758899.9      -20014.43       778914.3          38.99
               1        14        22         1        22      778914.3      -6842.814       785757.1          38.49
               1         9        30         2         1      50000.00      -26341.80       76341.80          40.39
               1         9        29         2         2      76341.80      -28772.65       105114.4          40.18
               1         9        28         2         3      105114.4      -33023.47       138137.9          39.96
               1         9        27         2         4      138137.9      -47130.76       185268.7          39.75
               1        10        26         2         5      185268.7      -32298.27       217566.9          39.54
               1        11        25         2         6      217566.9      -22431.62       239998.6          39.31
               1        12        24         2         7      239998.6      -14324.96       254323.5          39.07
               1        13        23         2         8      254323.5      -9439.854       263763.4          38.83
               1        14        22         2         9      263763.4      -9849.594       273613.0          38.34
               1        14        22         3         1      1059370.      -4871.242       1064241.          38.59
               1        15        23         3         2      1064241.      -18565.79       1082807.          37.59
               1        15        24         3         3      1082807.      -13152.06       1095959.          36.60
               1        15        25         3         4      1095959.      -7606.840       1103566.          35.60
               1        15        26         3         5      1103566.      -15874.08       1119440.          34.61
               1        16        27         3         6      1119440.      -27676.43       1147116.          33.61
               1        17        28         3         7      1147116.      -36156.12       1183273.          32.62
               1        18        29         3         8      1183273.      -47898.53       1231171.          31.64
               1        18        30         3         9      1231171.      -45054.46       1276226.          30.65
1
  VOLUMETRIC BUDGET FOR ENTIRE MODEL AT END OF TIME STEP  1 IN STRESS PERIOD   2
  ------------------------------------------------------------------------------

     CUMULATIVE VOLUMES      L**3       RATES FOR THIS TIME STEP      L**3/T
     ------------------                 ------------------------

           IN:                                      IN:
           ---                                      ---
             STORAGE =    19805248.1609               STORAGE =        7110.5962
       CONSTANT HEAD =   206035590.1058         CONSTANT HEAD =     1144011.4522
            RECHARGE =     6292800.0000              RECHARGE =       55200.0000
      STREAM LEAKAGE =           0.0000        STREAM LEAKAGE =           0.0000
        MANAGED FLOW =           0.0000          MANAGED FLOW =           0.0000

            TOTAL IN =   232133638.2668              TOTAL IN =     1206322.0484

          OUT:                                     OUT:
          ----                                     ----
             STORAGE =        8830.4922               STORAGE =          97.0384
       CONSTANT HEAD =           0.0000         CONSTANT HEAD =           0.0000
            RECHARGE =           0.0000              RECHARGE =           0.0000
      STREAM LEAKAGE =   219924449.5390        STREAM LEAKAGE =     1126225.6029
        MANAGED FLOW =    12200463.1338          MANAGED FLOW =       79999.9990

           TOTAL OUT =   232133743.1651             TOTAL OUT =     1206322.6403

            IN - OUT =        -104.8983              IN - OUT =          -0.5919

 PERCENT DISCREPANCY =           0.00     PERCENT DISCREPANCY =           0.00






          TIME SUMMARY AT END OF TIME STEP   1 IN STRESS PERIOD    2
                    SECONDS     MINUTES      HOURS       DAYS        YEARS
                    -----------------------------------------------------------
   TIME STEP LENGTH 7.86240E+06 1.31040E+05  2184.0      91.000     0.24914    
 STRESS PERIOD TIME 7.86240E+06 1.31040E+05  2184.0      91.000     0.24914    
         TOTAL TIME 1.58112E+07 2.63520E+05  4392.0      183.00     0.50103    
1
1
                            STRESS PERIOD NO.    3, LENGTH =   91.00000    
                            -----------------------------------------------

                              NUMBER OF TIME STEPS =     1

                               MULTIPLIER FOR DELT =     1.500

                            INITIAL TIME STEP SIZE =   91.00000    

                 RECHARGE =   0.00000    

REUSING STREAM NODES FROM LAST STRESS PERIOD
 
 SOLVING FOR HEAD 


     6 CALLS TO PCG ROUTINE FOR TIME STEP   1 IN STRESS PERIOD    3
    24 TOTAL ITERATIONS

 HEAD/DRAWDOWN PRINTOUT FLAG = 1     TOTAL BUDGET PRINTOUT FLAG = 1
 CELL-BY-CELL FLOW TERM FLAG = 1

 OUTPUT FLAGS FOR ALL LAYERS ARE THE SAME:
   HEAD    DRAWDOWN  HEAD  DRAWDOWN
 PRINTOUT  PRINTOUT  SAVE    SAVE
 ----------------------------------
     0         0       0       0

            LAYER      ROW     COLUMN     STREAM    REACH      FLOW INTO     FLOW INTO     FLOW OUT OF     HEAD IN
                                          NUMBER    NUMBER    STREAM REACH    AQUIFER      STREAM REACH     STREAM


               1        13         1         1         1      100000.0      -26938.72       126938.7          48.65
               1        13         2         1         2      126938.7      -36674.75       163613.5          48.18
               1        14         3         1         3      163613.5      -32186.53       195800.0          47.70
               1        15         4         1         4      195800.0      -31440.34       227240.3          47.22
               1        16         5         1         5      227240.3      -32992.35       260232.7          46.74
               1        16         6         1         6      260232.7      -28783.97       289016.7          46.26
               1        16         7         1         7      289016.7      -28500.77       317517.4          45.78
               1        16         8         1         8      317517.4      -28460.45       345977.9          45.29
               1        16         9         1         9      345977.9      -28078.80       374056.7          44.81
               1        16        10         1        10      374056.7      -26871.20       400927.9          44.32
               1        16        11         1        11      400927.9      -22422.02       423349.9          43.83
               1        16        12         1        12      423349.9      -57451.86       480801.8          40.35
               1        15        13         1        13      480801.8      -27422.87       508224.6          42.87
               1        14        14         1        14      508224.6      -30911.48       539136.1          42.39
               1        13        15         1        15      539136.1      -34270.41       573406.5          41.90
               1        12        16         1        16      573406.5      -41663.10       615069.6          41.42
               1        12        17         1        17      615069.6      -32377.59       647447.2          40.93
               1        12        18         1        18      647447.2      -31071.78       678519.0          40.44
               1        12        19         1        19      678519.0      -35725.91       714244.9          39.96
               1        13        20         1        20      714244.9      -25820.67       740065.6          39.47
               1        14        21         1        21      740065.6      -19713.23       759778.8          38.98
               1        14        22         1        22      759778.8      -7394.987       767173.8          38.48
               1         9        30         2         1      50000.00      -26155.23       76155.23          40.39
               1         9        29         2         2      76155.23      -28610.03       104765.3          40.18
               1         9        28         2         3      104765.3      -32876.68       137641.9          39.96
               1         9        27         2         4      137641.9      -46882.55       184524.5          39.75
               1        10        26         2         5      184524.5      -32799.56       217324.1          39.54
               1        11        25         2         6      217324.1      -24418.81       241742.9          39.31
               1        12        24         2         7      241742.9      -17831.42       259574.3          39.08
               1        13        23         2         8      259574.3      -12375.10       271949.4          38.84
               1        14        22         2         9      271949.4      -10133.69       282083.1          38.35
               1        14        22         3         1      1049257.      -5346.769       1054604.          38.59
               1        15        23         3         2      1054604.      -20075.45       1074679.          37.59
               1        15        24         3         3      1074679.      -17995.26       1092674.          36.60
               1        15        25         3         4      1092674.      -18351.60       1111026.          35.60
               1        15        26         3         5      1111026.      -21670.54       1132696.          34.61
               1        16        27         3         6      1132696.      -28959.51       1161656.          33.62
               1        17        28         3         7      1161656.      -36280.61       1197937.          32.63
               1        18        29         3         8      1197937.      -47570.73       1245507.          31.64
               1        18        30         3         9      1245507.      -44798.69       1290306.          30.65
1
  VOLUMETRIC BUDGET FOR ENTIRE MODEL AT END OF TIME STEP  1 IN STRESS PERIOD   3
  ------------------------------------------------------------------------------

     CUMULATIVE VOLUMES      L**3       RATES FOR THIS TIME STEP      L**3/T
     ------------------                 ------------------------

           IN:                                      IN:
           ---                                      ---
             STORAGE =    20045797.6920               STORAGE =        2643.4014
       CONSTANT HEAD =   312365456.4310         CONSTANT HEAD =     1168460.0695
            RECHARGE =     6292800.0000              RECHARGE =           0.0000
      STREAM LEAKAGE =           0.0000        STREAM LEAKAGE =           0.0000
        MANAGED FLOW =           0.0000          MANAGED FLOW =           0.0000

            TOTAL IN =   338704054.1230              TOTAL IN =     1171103.4709

          OUT:                                     OUT:
          ----                                     ----
             STORAGE =       46578.5865               STORAGE =         414.8142
       CONSTANT HEAD =           0.0000         CONSTANT HEAD =           0.0000
            RECHARGE =           0.0000              RECHARGE =           0.0000
      STREAM LEAKAGE =   323692297.7723        STREAM LEAKAGE =     1140306.0245
        MANAGED FLOW =    14965548.6992          MANAGED FLOW =       30385.5557

           TOTAL OUT =   338704425.0580             TOTAL OUT =     1171106.3944

            IN - OUT =        -370.9350              IN - OUT =          -2.9235

 PERCENT DISCREPANCY =           0.00     PERCENT DISCREPANCY =           0.00






          TIME SUMMARY AT END OF TIME STEP   1 IN STRESS PERIOD    3
                    SECONDS     MINUTES      HOURS       DAYS        YEARS
                    -----------------------------------------------------------
   TIME STEP LENGTH 7.86240E+06 1.31040E+05  2184.0      91.000     0.24914    
 STRESS PERIOD TIME 7.86240E+06 1.31040E+05  2184.0      91.000     0.24914    
         TOTAL TIME 2.36736E+07 3.94560E+05  6576.0      274.00     0.75017    
1
1
                            STRESS PERIOD NO.    4, LENGTH =   91.00000    
                            -----------------------------------------------

                              NUMBER OF TIME STEPS =     1

                               MULTIPLIER FOR DELT =     1.500

                            INITIAL TIME STEP SIZE =   91.00000    

                 RECHARGE =  1.000000E-03

REUSING STREAM NODES FROM LAST STRESS PERIOD
 
 SOLVING FOR HEAD 


     6 CALLS TO PCG ROUTINE FOR TIME STEP   1 IN STRESS PERIOD    4
    22 TOTAL ITERATIONS

 HEAD/DRAWDOWN PRINTOUT FLAG = 1     TOTAL BUDGET PRINTOUT FLAG = 1
 CELL-BY-CELL FLOW TERM FLAG = 1

 OUTPUT FLAGS FOR ALL LAYERS ARE THE SAME:
   HEAD    DRAWDOWN  HEAD  DRAWDOWN
 PRINTOUT  PRINTOUT  SAVE    SAVE
 ----------------------------------
     0         0       0       0

            LAYER      ROW     COLUMN     STREAM    REACH      FLOW INTO     FLOW INTO     FLOW OUT OF     HEAD IN
                                          NUMBER    NUMBER    STREAM REACH    AQUIFER      STREAM REACH     STREAM


               1        13         1         1         1      100000.0      -27319.28       127319.3          48.65
               1        13         2         1         2      127319.3      -37126.56       164445.8          48.18
               1        14         3         1         3      164445.8      -32635.69       197081.5          47.70
               1        15         4         1         4      197081.5      -31876.26       228957.8          47.22
               1        16         5         1         5      228957.8      -33390.26       262348.0          46.74
               1        16         6         1         6      262348.0      -29128.82       291476.9          46.26
               1        16         7         1         7      291476.9      -28841.80       320318.7          45.78
               1        16         8         1         8      320318.7      -28802.51       349121.2          45.29
               1        16         9         1         9      349121.2      -28421.30       377542.5          44.81
               1        16        10         1        10      377542.5      -27213.95       404756.4          44.32
               1        16        11         1        11      404756.4      -22771.61       427528.0          43.84
               1        16        12         1        12      427528.0      -57864.63       485392.7          40.35
               1        15        13         1        13      485392.7      -27877.48       513270.1          42.87
               1        14        14         1        14      513270.1      -31380.23       544650.4          42.39
               1        13        15         1        15      544650.4      -34732.28       579382.6          41.90
               1        12        16         1        16      579382.6      -42100.30       621482.9          41.42
               1        12        17         1        17      621482.9      -32733.95       654216.9          40.93
               1        12        18         1        18      654216.9      -31409.91       685626.8          40.45
               1        12        19         1        19      685626.8      -36083.73       721710.5          39.96
               1        13        20         1        20      721710.5      -26147.28       747857.8          39.47
               1        14        21         1        21      747857.8      -19975.33       767833.1          38.98
               1        14        22         1        22      767833.1      -7385.644       775218.8          38.49
               1         9        30         2         1      50000.00      -26371.84       76371.84          40.39
               1         9        29         2         2      76371.84      -28821.91       105193.8          40.18
               1         9        28         2         3      105193.8      -33090.20       138284.0          39.96
               1         9        27         2         4      138284.0      -47148.35       185432.3          39.75
               1        10        26         2         5      185432.3      -32961.23       218393.5          39.54
               1        11        25         2         6      218393.5      -24337.63       242731.2          39.31
               1        12        24         2         7      242731.2      -17482.68       260213.8          39.08
               1        13        23         2         8      260213.8      -12077.05       272290.9          38.84
               1        14        22         2         9      272290.9      -10179.86       282470.8          38.35
               1        14        22         3         1      1057690.      -5342.197       1063032.          38.59
               1        15        23         3         2      1063032.      -20029.01       1083061.          37.59
               1        15        24         3         3      1083061.      -17379.36       1100440.          36.60
               1        15        25         3         4      1100440.      -16776.83       1117217.          35.60
               1        15        26         3         5      1117217.      -20937.54       1138154.          34.61
               1        16        27         3         6      1138154.      -28988.21       1167143.          33.62
               1        17        28         3         7      1167143.      -36494.34       1203637.          32.63
               1        18        29         3         8      1203637.      -47836.60       1251474.          31.64
               1        18        30         3         9      1251474.      -45019.30       1296493.          30.66
1
  VOLUMETRIC BUDGET FOR ENTIRE MODEL AT END OF TIME STEP  1 IN STRESS PERIOD   4
  ------------------------------------------------------------------------------

     CUMULATIVE VOLUMES      L**3       RATES FOR THIS TIME STEP      L**3/T
     ------------------                 ------------------------

           IN:                                      IN:
           ---                                      ---
             STORAGE =    20049713.9028               STORAGE =          43.0353
       CONSTANT HEAD =   417764588.7537         CONSTANT HEAD =     1158232.2233
            RECHARGE =     8804400.0000              RECHARGE =       27600.0000
      STREAM LEAKAGE =           0.0000        STREAM LEAKAGE =           0.0000
        MANAGED FLOW =           0.0000          MANAGED FLOW =           0.0000

            TOTAL IN =   446618702.6565              TOTAL IN =     1185875.2586

          OUT:                                     OUT:
          ----                                     ----
             STORAGE =      145707.7429               STORAGE =        1089.3314
       CONSTANT HEAD =           0.0000         CONSTANT HEAD =           0.0000
            RECHARGE =           0.0000              RECHARGE =           0.0000
      STREAM LEAKAGE =   428023153.2469        STREAM LEAKAGE =     1146492.9173
        MANAGED FLOW =    18450056.9814          MANAGED FLOW =       38291.2998

           TOTAL OUT =   446618917.9712             TOTAL OUT =     1185873.5485

            IN - OUT =        -215.3147              IN - OUT =           1.7101

 PERCENT DISCREPANCY =           0.00     PERCENT DISCREPANCY =           0.00






          TIME SUMMARY AT END OF TIME STEP   1 IN STRESS PERIOD    4
                    SECONDS     MINUTES      HOURS       DAYS        YEARS
                    -----------------------------------------------------------
   TIME STEP LENGTH 7.86240E+06 1.31040E+05  2184.0      91.000     0.24914    
 STRESS PERIOD TIME 7.86240E+06 1.31040E+05  2184.0      91.000     0.24914    
         TOTAL TIME 3.15360E+07 5.25600E+05  8760.0      365.00     0.99932    
1
1
                            STRESS PERIOD NO.    5, LENGTH =   92.00000    
                            -----------------------------------------------

                              NUMBER OF TIME STEPS =     1

                               MULTIPLIER FOR DELT =     1.500

                            INITIAL TIME STEP SIZE =   92.00000    

                 RECHARGE =  5.000000E-04

REUSING STREAM NODES FROM LAST STRESS PERIOD
 
 SOLVING FOR HEAD 


     6 CALLS TO PCG ROUTINE FOR TIME STEP   1 IN STRESS PERIOD    5
    23 TOTAL ITERATIONS

 HEAD/DRAWDOWN PRINTOUT FLAG = 1     TOTAL BUDGET PRINTOUT FLAG = 1
 CELL-BY-CELL FLOW TERM FLAG = 1

 OUTPUT FLAGS FOR ALL LAYERS ARE THE SAME:
   HEAD    DRAWDOWN  HEAD  DRAWDOWN
 PRINTOUT  PRINTOUT  SAVE    SAVE
 ----------------------------------
     0         0       0       0

            LAYER      ROW     COLUMN     STREAM    REACH      FLOW INTO     FLOW INTO     FLOW OUT OF     HEAD IN
                                          NUMBER    NUMBER    STREAM REACH    AQUIFER      STREAM REACH     STREAM


               1        13         1         1         1      100000.0      -27103.78       127103.8          48.65
               1        13         2         1         2      127103.8      -36867.79       163971.6          48.18
               1        14         3         1         3      163971.6      -32374.57       196346.1          47.70
               1        15         4         1         4      196346.1      -31615.08       227961.2          47.22
               1        16         5         1         5      227961.2      -33135.19       261096.4          46.74
               1        16         6         1         6      261096.4      -28890.82       289987.2          46.26
               1        16         7         1         7      289987.2      -28582.71       318569.9          45.78
               1        16         8         1         8      318569.9      -28506.78       347076.7          45.29
               1        16         9         1         9      347076.7      -28068.03       375144.8          44.81
               1        16        10         1        10      375144.8      -26762.24       401907.0          44.32
               1        16        11         1        11      401907.0      -22114.03       424021.0          43.83
               1        16        12         1        12      424021.0      -56563.59       480584.6          40.35
               1        15        13         1        13      480584.6      -26095.62       506680.2          42.87
               1        14        14         1        14      506680.2      -29266.86       535947.1          42.38
               1        13        15         1        15      535947.1      -32757.68       568704.8          41.90
               1        12        16         1        16      568704.8      -40859.44       609564.2          41.41
               1        12        17         1        17      609564.2      -31406.39       640970.6          40.93
               1        12        18         1        18      640970.6      -30184.02       671154.6          40.44
               1        12        19         1        19      671154.6      -35084.10       706238.7          39.95
               1        13        20         1        20      706238.7      -24698.27       730937.0          39.47
               1        14        21         1        21      730937.0      -18584.75       749521.7          38.97
               1        14        22         1        22      749521.7      -7218.814       756740.6          38.48
               1         9        30         2         1      50000.00      -26300.06       76300.06          40.39
               1         9        29         2         2      76300.06      -28753.61       105053.7          40.18
               1         9        28         2         3      105053.7      -33021.92       138075.6          39.96
               1         9        27         2         4      138075.6      -47050.77       185126.4          39.75
               1        10        26         2         5      185126.4      -32973.74       218100.1          39.54
               1        11        25         2         6      218100.1      -24577.42       242677.5          39.31
               1        12        24         2         7      242677.5      -17940.53       260618.1          39.08
               1        13        23         2         8      260618.1      -12364.74       272982.8          38.84
               1        14        22         2         9      272982.8      -9865.295       282848.1          38.35
               1        14        22         3         1      1039589.      -5157.165       1044746.          38.58
               1        15        23         3         2      1044746.      -19590.18       1064336.          37.59
               1        15        24         3         3      1064336.      -17850.36       1082186.          36.59
               1        15        25         3         4      1082186.      -18348.55       1100535.          35.60
               1        15        26         3         5      1100535.      -21757.48       1122292.          34.61
               1        16        27         3         6      1122292.      -29021.63       1151314.          33.61
               1        17        28         3         7      1151314.      -36352.24       1187666.          32.62
               1        18        29         3         8      1187666.      -47644.47       1235311.          31.64
               1        18        30         3         9      1235311.      -44888.07       1280199.          30.65
1
  VOLUMETRIC BUDGET FOR ENTIRE MODEL AT END OF TIME STEP  1 IN STRESS PERIOD   5
  ------------------------------------------------------------------------------

     CUMULATIVE VOLUMES      L**3       RATES FOR THIS TIME STEP      L**3/T
     ------------------                 ------------------------

           IN:                                      IN:
           ---                                      ---
             STORAGE =    20211538.3911               STORAGE =        1758.9618
       CONSTANT HEAD =   525236657.9382         CONSTANT HEAD =     1168174.6650
            RECHARGE =    10074000.0000              RECHARGE =       13800.0000
      STREAM LEAKAGE =           0.0000        STREAM LEAKAGE =           0.0000
        MANAGED FLOW =           0.0000          MANAGED FLOW =           0.0000

            TOTAL IN =   555522196.3293              TOTAL IN =     1183733.6269

          OUT:                                     OUT:
          ----                                     ----
             STORAGE =      150627.9928               STORAGE =          53.4810
       CONSTANT HEAD =           0.0000         CONSTANT HEAD =           0.0000
            RECHARGE =           0.0000              RECHARGE =           0.0000
      STREAM LEAKAGE =   532001442.1371        STREAM LEAKAGE =     1130198.7923
        MANAGED FLOW =    23370520.2041          MANAGED FLOW =       53483.2959

           TOTAL OUT =   555522590.3340             TOTAL OUT =     1183735.5692

            IN - OUT =        -394.0047              IN - OUT =          -1.9423

 PERCENT DISCREPANCY =           0.00     PERCENT DISCREPANCY =           0.00






          TIME SUMMARY AT END OF TIME STEP   1 IN STRESS PERIOD    5
                    SECONDS     MINUTES      HOURS       DAYS        YEARS
                    -----------------------------------------------------------
   TIME STEP LENGTH 7.94880E+06 1.32480E+05  2208.0      92.000     0.25188    
 STRESS PERIOD TIME 7.94880E+06 1.32480E+05  2208.0      92.000     0.25188    
         TOTAL TIME 3.94848E+07 6.58080E+05  10968.      457.00      1.2512    
1
1
                            STRESS PERIOD NO.    6, LENGTH =   91.00000    
                            -----------------------------------------------

                              NUMBER OF TIME STEPS =     1

                               MULTIPLIER FOR DELT =     1.500

                            INITIAL TIME STEP SIZE =   91.00000    

                 RECHARGE =  2.000000E-03

REUSING STREAM NODES FROM LAST STRESS PERIOD
 
 SOLVING FOR HEAD 


     6 CALLS TO PCG ROUTINE FOR TIME STEP   1 IN STRESS PERIOD    6
    24 TOTAL ITERATIONS

 HEAD/DRAWDOWN PRINTOUT FLAG = 1     TOTAL BUDGET PRINTOUT FLAG = 1
 CELL-BY-CELL FLOW TERM FLAG = 1

 OUTPUT FLAGS FOR ALL LAYERS ARE THE SAME:
   HEAD    DRAWDOWN  HEAD  DRAWDOWN
 PRINTOUT  PRINTOUT  SAVE    SAVE
 ----------------------------------
     0         0       0       0

            LAYER      ROW     COLUMN     STREAM    REACH      FLOW INTO     FLOW INTO     FLOW OUT OF     HEAD IN
                                          NUMBER    NUMBER    STREAM REACH    AQUIFER      STREAM REACH     STREAM


               1        13         1         1         1      100000.0      -27767.85       127767.8          48.65
               1        13         2         1         2      127767.8      -37662.88       165430.7          48.18
               1        14         3         1         3      165430.7      -33157.62       198588.3          47.70
               1        15         4         1         4      198588.3      -32375.38       230963.7          47.23
               1        16         5         1         5      230963.7      -33837.24       264801.0          46.75
               1        16         6         1         6      264801.0      -29515.40       294316.4          46.26
               1        16         7         1         7      294316.4      -29221.73       323538.1          45.78
               1        16         8         1         8      323538.1      -29179.24       352717.3          45.30
               1        16         9         1         9      352717.3      -28791.39       381508.7          44.81
               1        16        10         1        10      381508.7      -27572.70       409081.4          44.33
               1        16        11         1        11      409081.4      -23116.46       432197.9          43.84
               1        16        12         1        12      432197.9      -58221.83       490419.7          40.36
               1        15        13         1        13      490419.7      -28255.48       518675.2          42.88
               1        14        14         1        14      518675.2      -31756.22       550431.4          42.39
               1        13        15         1        15      550431.4      -35112.12       585543.5          41.90
               1        12        16         1        16      585543.5      -42504.51       628048.1          41.42
               1        12        17         1        17      628048.1      -33020.53       661068.6          40.94
               1        12        18         1        18      661068.6      -31657.06       692725.6          40.45
               1        12        19         1        19      692725.6      -36308.67       729034.3          39.96
               1        13        20         1        20      729034.3      -26220.30       755254.6          39.47
               1        14        21         1        21      755254.6      -19894.28       775148.9          38.98
               1        14        22         1        22      775148.9      -6805.634       781954.5          38.49
               1         9        30         2         1      50000.00      -26255.97       76255.97          40.39
               1         9        29         2         2      76255.97      -28686.39       104942.4          40.18
               1         9        28         2         3      104942.4      -32932.34       137874.7          39.96
               1         9        27         2         4      137874.7      -47012.03       184886.7          39.75
               1        10        26         2         5      184886.7      -32171.05       217057.8          39.54
               1        11        25         2         6      217057.8      -22307.85       239365.6          39.31
               1        12        24         2         7      239365.6      -14216.29       253581.9          39.07
               1        13        23         2         8      253581.9      -9354.326       262936.3          38.83
               1        14        22         2         9      262936.3      -9796.900       272733.2          38.34
               1        14        22         3         1      1054688.      -4836.881       1059525.          38.59
               1        15        23         3         2      1059525.      -18462.87       1077987.          37.59
               1        15        24         3         3      1077987.      -13074.15       1091062.          36.60
               1        15        25         3         4      1091062.      -7532.058       1098594.          35.60
               1        15        26         3         5      1098594.      -15785.33       1114379.          34.60
               1        16        27         3         6      1114379.      -27565.58       1141945.          33.61
               1        17        28         3         7      1141945.      -36044.56       1177989.          32.62
               1        18        29         3         8      1177989.      -47798.94       1225788.          31.63
               1        18        30         3         9      1225788.      -44973.91       1270762.          30.65
1
  VOLUMETRIC BUDGET FOR ENTIRE MODEL AT END OF TIME STEP  1 IN STRESS PERIOD   6
  ------------------------------------------------------------------------------

     CUMULATIVE VOLUMES      L**3       RATES FOR THIS TIME STEP      L**3/T
     ------------------                 ------------------------

           IN:                                      IN:
           ---                                      ---
             STORAGE =    20252277.2354               STORAGE =         447.6796
       CONSTANT HEAD =   629695803.3016         CONSTANT HEAD =     1147902.6963
            RECHARGE =    15097200.0000              RECHARGE =       55200.0000
      STREAM LEAKAGE =           0.0000        STREAM LEAKAGE =           0.0000
        MANAGED FLOW =           0.0000          MANAGED FLOW =           0.0000

            TOTAL IN =   665045280.5370              TOTAL IN =     1203550.3759

          OUT:                                     OUT:
          ----                                     ----
             STORAGE =      404169.4014               STORAGE =        2786.1693
       CONSTANT HEAD =           0.0000         CONSTANT HEAD =           0.0000
            RECHARGE =           0.0000              RECHARGE =           0.0000
      STREAM LEAKAGE =   633990780.0322        STREAM LEAKAGE =     1120761.9549
        MANAGED FLOW =    30650520.1152          MANAGED FLOW =       79999.9990

           TOTAL OUT =   665045469.5488             TOTAL OUT =     1203548.1232

            IN - OUT =        -189.0119              IN - OUT =           2.2527

 PERCENT DISCREPANCY =           0.00     PERCENT DISCREPANCY =           0.00






          TIME SUMMARY AT END OF TIME STEP   1 IN STRESS PERIOD    6
                    SECONDS     MINUTES      HOURS       DAYS        YEARS
                    -----------------------------------------------------------
   TIME STEP LENGTH 7.86240E+06 1.31040E+05  2184.0      91.000     0.24914    
 STRESS PERIOD TIME 7.86240E+06 1.31040E+05  2184.0      91.000     0.24914    
         TOTAL TIME 4.73472E+07 7.89120E+05  13152.      548.00      1.5003    
1
1
                            STRESS PERIOD NO.    7, LENGTH =   91.00000    
                            -----------------------------------------------

                              NUMBER OF TIME STEPS =     1

                               MULTIPLIER FOR DELT =     1.500

                            INITIAL TIME STEP SIZE =   91.00000    

                 RECHARGE =   0.00000    

REUSING STREAM NODES FROM LAST STRESS PERIOD
 
 SOLVING FOR HEAD 


     6 CALLS TO PCG ROUTINE FOR TIME STEP   1 IN STRESS PERIOD    7
    23 TOTAL ITERATIONS

 HEAD/DRAWDOWN PRINTOUT FLAG = 1     TOTAL BUDGET PRINTOUT FLAG = 1
 CELL-BY-CELL FLOW TERM FLAG = 1

 OUTPUT FLAGS FOR ALL LAYERS ARE THE SAME:
   HEAD    DRAWDOWN  HEAD  DRAWDOWN
 PRINTOUT  PRINTOUT  SAVE    SAVE
 ----------------------------------
     0         0       0       0

            LAYER      ROW     COLUMN     STREAM    REACH      FLOW INTO     FLOW INTO     FLOW OUT OF     HEAD IN
                                          NUMBER    NUMBER    STREAM REACH    AQUIFER      STREAM REACH     STREAM


               1        13         1         1         1      100000.0      -26925.41       126925.4          48.65
               1        13         2         1         2      126925.4      -36657.91       163583.3          48.18
               1        14         3         1         3      163583.3      -32172.40       195755.7          47.70
               1        15         4         1         4      195755.7      -31428.27       227184.0          47.22
               1        16         5         1         5      227184.0      -32983.07       260167.1          46.74
               1        16         6         1         6      260167.1      -28775.30       288942.3          46.26
               1        16         7         1         7      288942.3      -28491.87       317434.2          45.78
               1        16         8         1         8      317434.2      -28451.40       345885.6          45.29
               1        16         9         1         9      345885.6      -28069.77       373955.4          44.81
               1        16        10         1        10      373955.4      -26862.32       400817.7          44.32
               1        16        11         1        11      400817.7      -22413.30       423231.0          43.83
               1        16        12         1        12      423231.0      -57442.18       480673.2          40.35
               1        15        13         1        13      480673.2      -27410.87       508084.1          42.87
               1        14        14         1        14      508084.1      -30898.37       538982.4          42.39
               1        13        15         1        15      538982.4      -34256.94       573239.4          41.90
               1        12        16         1        16      573239.4      -41649.41       614888.8          41.42
               1        12        17         1        17      614888.8      -32367.84       647256.6          40.93
               1        12        18         1        18      647256.6      -31063.20       678319.8          40.44
               1        12        19         1        19      678319.8      -35717.07       714036.9          39.96
               1        13        20         1        20      714036.9      -25813.64       739850.5          39.47
               1        14        21         1        21      739850.5      -19707.55       759558.1          38.98
               1        14        22         1        22      759558.1      -7393.406       766951.5          38.48
               1         9        30         2         1      50000.00      -26152.02       76152.02          40.39
               1         9        29         2         2      76152.02      -28606.72       104758.7          40.18
               1         9        28         2         3      104758.7      -32872.98       137631.7          39.96
               1         9        27         2         4      137631.7      -46877.27       184509.0          39.75
               1        10        26         2         5      184509.0      -32794.03       217303.0          39.54
               1        11        25         2         6      217303.0      -24413.38       241716.4          39.31
               1        12        24         2         7      241716.4      -17826.54       259542.9          39.08
               1        13        23         2         8      259542.9      -12371.13       271914.1          38.84
               1        14        22         2         9      271914.1      -10130.97       282045.0          38.35
               1        14        22         3         1      1048997.      -5345.249       1054342.          38.59
               1        15        23         3         2      1054342.      -20070.84       1074413.          37.59
               1        15        24         3         3      1074413.      -17991.98       1092405.          36.60
               1        15        25         3         4      1092405.      -18348.71       1110753.          35.60
               1        15        26         3         5      1110753.      -21667.45       1132421.          34.61
               1        16        27         3         6      1132421.      -28955.51       1161376.          33.62
               1        17        28         3         7      1161376.      -36276.52       1197653.          32.63
               1        18        29         3         8      1197653.      -47566.93       1245220.          31.64
               1        18        30         3         9      1245220.      -44795.76       1290015.          30.65
1
  VOLUMETRIC BUDGET FOR ENTIRE MODEL AT END OF TIME STEP  1 IN STRESS PERIOD   7
  ------------------------------------------------------------------------------

     CUMULATIVE VOLUMES      L**3       RATES FOR THIS TIME STEP      L**3/T
     ------------------                 ------------------------

           IN:                                      IN:
           ---                                      ---
             STORAGE =    20446031.9148               STORAGE =        2129.1723
       CONSTANT HEAD =   736047751.2568         CONSTANT HEAD =     1168702.7248
            RECHARGE =    15097200.0000              RECHARGE =           0.0000
      STREAM LEAKAGE =           0.0000        STREAM LEAKAGE =           0.0000
        MANAGED FLOW =           0.0000          MANAGED FLOW =           0.0000

            TOTAL IN =   771590983.1716              TOTAL IN =     1170831.8971

          OUT:                                     OUT:
          ----                                     ----
             STORAGE =      443611.9577               STORAGE =         433.4347
       CONSTANT HEAD =           0.0000         CONSTANT HEAD =           0.0000
            RECHARGE =           0.0000              RECHARGE =           0.0000
      STREAM LEAKAGE =   737732189.3467        STREAM LEAKAGE =     1140015.4870
        MANAGED FLOW =    33415605.6807          MANAGED FLOW =       30385.5557

           TOTAL OUT =   771591406.9851             TOTAL OUT =     1170834.4773

            IN - OUT =        -423.8135              IN - OUT =          -2.5802

 PERCENT DISCREPANCY =           0.00     PERCENT DISCREPANCY =           0.00






          TIME SUMMARY AT END OF TIME STEP   1 IN STRESS PERIOD    7
                    SECONDS     MINUTES      HOURS       DAYS        YEARS
                    -----------------------------------------------------------
   TIME STEP LENGTH 7.86240E+06 1.31040E+05  2184.0      91.000     0.24914    
 STRESS PERIOD TIME 7.86240E+06 1.31040E+05  2184.0      91.000     0.24914    
         TOTAL TIME 5.52096E+07 9.20160E+05  15336.      639.00      1.7495    
1
1
                            STRESS PERIOD NO.    8, LENGTH =   91.00000    
                            -----------------------------------------------

                              NUMBER OF TIME STEPS =     1

                               MULTIPLIER FOR DELT =     1.500

                            INITIAL TIME STEP SIZE =   91.00000    

                 RECHARGE =  1.000000E-03

REUSING STREAM NODES FROM LAST STRESS PERIOD
 
 SOLVING FOR HEAD 


     6 CALLS TO PCG ROUTINE FOR TIME STEP   1 IN STRESS PERIOD    8
    22 TOTAL ITERATIONS

 HEAD/DRAWDOWN PRINTOUT FLAG = 1     TOTAL BUDGET PRINTOUT FLAG = 1
 CELL-BY-CELL FLOW TERM FLAG = 1

 OUTPUT FLAGS FOR ALL LAYERS ARE THE SAME:
   HEAD    DRAWDOWN  HEAD  DRAWDOWN
 PRINTOUT  PRINTOUT  SAVE    SAVE
 ----------------------------------
     0         0       0       0

            LAYER      ROW     COLUMN     STREAM    REACH      FLOW INTO     FLOW INTO     FLOW OUT OF     HEAD IN
                                          NUMBER    NUMBER    STREAM REACH    AQUIFER      STREAM REACH     STREAM


               1        13         1         1         1      100000.0      -27318.34       127318.3          48.65
               1        13         2         1         2      127318.3      -37125.36       164443.7          48.18
               1        14         3         1         3      164443.7      -32634.72       197078.4          47.70
               1        15         4         1         4      197078.4      -31875.47       228953.9          47.22
               1        16         5         1         5      228953.9      -33389.69       262343.6          46.74
               1        16         6         1         6      262343.6      -29128.27       291471.9          46.26
               1        16         7         1         7      291471.9      -28841.22       320313.1          45.78
               1        16         8         1         8      320313.1      -28801.93       349115.0          45.29
               1        16         9         1         9      349115.0      -28420.73       377535.7          44.81
               1        16        10         1        10      377535.7      -27213.39       404749.1          44.32
               1        16        11         1        11      404749.1      -22771.07       427520.2          43.84
               1        16        12         1        12      427520.2      -57864.05       485384.2          40.35
               1        15        13         1        13      485384.2      -27876.74       513261.0          42.87
               1        14        14         1        14      513261.0      -31379.40       544640.4          42.39
               1        13        15         1        15      544640.4      -34731.41       579371.8          41.90
               1        12        16         1        16      579371.8      -42099.40       621471.2          41.42
               1        12        17         1        17      621471.2      -32733.33       654204.5          40.93
               1        12        18         1        18      654204.5      -31409.39       685613.9          40.45
               1        12        19         1        19      685613.9      -36083.19       721697.1          39.96
               1        13        20         1        20      721697.1      -26146.89       747844.0          39.47
               1        14        21         1        21      747844.0      -19975.03       767819.0          38.98
               1        14        22         1        22      767819.0      -7385.567       775204.6          38.49
               1         9        30         2         1      50000.00      -26371.70       76371.70          40.39
               1         9        29         2         2      76371.70      -28821.76       105193.5          40.18
               1         9        28         2         3      105193.5      -33090.02       138283.5          39.96
               1         9        27         2         4      138283.5      -47148.07       185431.5          39.75
               1        10        26         2         5      185431.5      -32960.94       218392.5          39.54
               1        11        25         2         6      218392.5      -24337.34       242729.8          39.31
               1        12        24         2         7      242729.8      -17482.41       260212.2          39.08
               1        13        23         2         8      260212.2      -12076.83       272289.1          38.84
               1        14        22         2         9      272289.1      -10179.71       282468.8          38.35
               1        14        22         3         1      1057673.      -5342.121       1063015.          38.59
               1        15        23         3         2      1063015.      -20028.79       1083044.          37.59
               1        15        24         3         3      1083044.      -17379.20       1100423.          36.60
               1        15        25         3         4      1100423.      -16776.70       1117200.          35.60
               1        15        26         3         5      1117200.      -20937.41       1138138.          34.61
               1        16        27         3         6      1138138.      -28988.04       1167126.          33.62
               1        17        28         3         7      1167126.      -36494.16       1203620.          32.63
               1        18        29         3         8      1203620.      -47836.43       1251456.          31.64
               1        18        30         3         9      1251456.      -45019.18       1296475.          30.66
1
  VOLUMETRIC BUDGET FOR ENTIRE MODEL AT END OF TIME STEP  1 IN STRESS PERIOD   8
  ------------------------------------------------------------------------------

     CUMULATIVE VOLUMES      L**3       RATES FOR THIS TIME STEP      L**3/T
     ------------------                 ------------------------

           IN:                                      IN:
           ---                                      ---
             STORAGE =    20449927.6114               STORAGE =          42.8099
       CONSTANT HEAD =   841448287.5489         CONSTANT HEAD =     1158247.6516
            RECHARGE =    17608800.0000              RECHARGE =       27600.0000
      STREAM LEAKAGE =           0.0000        STREAM LEAKAGE =           0.0000
        MANAGED FLOW =           0.0000          MANAGED FLOW =           0.0000

            TOTAL IN =   879507015.1603              TOTAL IN =     1185890.4614

          OUT:                                     OUT:
          ----                                     ----
             STORAGE =      545713.8093               STORAGE =        1121.9984
       CONSTANT HEAD =           0.0000         CONSTANT HEAD =           0.0000
            RECHARGE =           0.0000              RECHARGE =           0.0000
      STREAM LEAKAGE =   842061451.2254        STREAM LEAKAGE =     1146475.4053
        MANAGED FLOW =    36900113.9629          MANAGED FLOW =       38291.2998

           TOTAL OUT =   879507278.9977             TOTAL OUT =     1185888.7034

            IN - OUT =        -263.8374              IN - OUT =           1.7580

 PERCENT DISCREPANCY =           0.00     PERCENT DISCREPANCY =           0.00






          TIME SUMMARY AT END OF TIME STEP   1 IN STRESS PERIOD    8
                    SECONDS     MINUTES      HOURS       DAYS        YEARS
                    -----------------------------------------------------------
   TIME STEP LENGTH 7.86240E+06 1.31040E+05  2184.0      91.000     0.24914    
 STRESS PERIOD TIME 7.86240E+06 1.31040E+05  2184.0      91.000     0.24914    
         TOTAL TIME 6.30720E+07 1.05120E+06  17520.      730.00      1.9986    
1
1
                            STRESS PERIOD NO.    9, LENGTH =   92.00000    
                            -----------------------------------------------

                              NUMBER OF TIME STEPS =     1

                               MULTIPLIER FOR DELT =     1.500

                            INITIAL TIME STEP SIZE =   92.00000    

                 RECHARGE =  5.000000E-04

REUSING STREAM NODES FROM LAST STRESS PERIOD
 
 SOLVING FOR HEAD 


     6 CALLS TO PCG ROUTINE FOR TIME STEP   1 IN STRESS PERIOD    9
    23 TOTAL ITERATIONS

 HEAD/DRAWDOWN PRINTOUT FLAG = 1     TOTAL BUDGET PRINTOUT FLAG = 1
 CELL-BY-CELL FLOW TERM FLAG = 1

 OUTPUT FLAGS FOR ALL LAYERS ARE THE SAME:
   HEAD    DRAWDOWN  HEAD  DRAWDOWN
 PRINTOUT  PRINTOUT  SAVE    SAVE
 ----------------------------------
     0         0       0       0

            LAYER      ROW     COLUMN     STREAM    REACH      FLOW INTO     FLOW INTO     FLOW OUT OF     HEAD IN
                                          NUMBER    NUMBER    STREAM REACH    AQUIFER      STREAM REACH     STREAM


               1        13         1         1         1      100000.0      -27103.72       127103.7          48.65
               1        13         2         1         2      127103.7      -36867.71       163971.4          48.18
               1        14         3         1         3      163971.4      -32374.50       196345.9          47.70
               1        15         4         1         4      196345.9      -31615.03       227961.0          47.22
               1        16         5         1         5      227961.0      -33135.16       261096.1          46.74
               1        16         6         1         6      261096.1      -28890.78       289986.9          46.26
               1        16         7         1         7      289986.9      -28582.67       318569.6          45.78
               1        16         8         1         8      318569.6      -28506.74       347076.3          45.29
               1        16         9         1         9      347076.3      -28068.00       375144.3          44.81
               1        16        10         1        10      375144.3      -26762.20       401906.5          44.32
               1        16        11         1        11      401906.5      -22114.00       424020.5          43.83
               1        16        12         1        12      424020.5      -56563.56       480584.1          40.35
               1        15        13         1        13      480584.1      -26095.57       506679.6          42.87
               1        14        14         1        14      506679.6      -29266.80       535946.4          42.38
               1        13        15         1        15      535946.4      -32757.62       568704.1          41.90
               1        12        16         1        16      568704.1      -40859.38       609563.4          41.41
               1        12        17         1        17      609563.4      -31406.35       640969.8          40.93
               1        12        18         1        18      640969.8      -30183.99       671153.8          40.44
               1        12        19         1        19      671153.8      -35084.07       706237.8          39.95
               1        13        20         1        20      706237.8      -24698.24       730936.1          39.47
               1        14        21         1        21      730936.1      -18584.73       749520.8          38.97
               1        14        22         1        22      749520.8      -7218.810       756739.6          38.48
               1         9        30         2         1      50000.00      -26300.05       76300.05          40.39
               1         9        29         2         2      76300.05      -28753.60       105053.7          40.18
               1         9        28         2         3      105053.7      -33021.91       138075.6          39.96
               1         9        27         2         4      138075.6      -47050.76       185126.3          39.75
               1        10        26         2         5      185126.3      -32973.73       218100.0          39.54
               1        11        25         2         6      218100.0      -24577.41       242677.5          39.31
               1        12        24         2         7      242677.5      -17940.52       260618.0          39.08
               1        13        23         2         8      260618.0      -12364.73       272982.7          38.84
               1        14        22         2         9      272982.7      -9865.285       282848.0          38.35
               1        14        22         3         1      1039588.      -5157.161       1044745.          38.58
               1        15        23         3         2      1044745.      -19590.17       1064335.          37.59
               1        15        24         3         3      1064335.      -17850.35       1082185.          36.59
               1        15        25         3         4      1082185.      -18348.54       1100534.          35.60
               1        15        26         3         5      1100534.      -21757.47       1122291.          34.61
               1        16        27         3         6      1122291.      -29021.62       1151313.          33.61
               1        17        28         3         7      1151313.      -36352.23       1187665.          32.62
               1        18        29         3         8      1187665.      -47644.46       1235310.          31.64
               1        18        30         3         9      1235310.      -44888.07       1280198.          30.65
1
  VOLUMETRIC BUDGET FOR ENTIRE MODEL AT END OF TIME STEP  1 IN STRESS PERIOD   9
  ------------------------------------------------------------------------------

     CUMULATIVE VOLUMES      L**3       RATES FOR THIS TIME STEP      L**3/T
     ------------------                 ------------------------

           IN:                                      IN:
           ---                                      ---
             STORAGE =    20611559.7467               STORAGE =        1756.8710
       CONSTANT HEAD =   948920448.6853         CONSTANT HEAD =     1168175.6645
            RECHARGE =    18878400.0000              RECHARGE =       13800.0000
      STREAM LEAKAGE =           0.0000        STREAM LEAKAGE =           0.0000
        MANAGED FLOW =           0.0000          MANAGED FLOW =           0.0000

            TOTAL IN =   988410408.4319              TOTAL IN =     1183732.5356

          OUT:                                     OUT:
          ----                                     ----
             STORAGE =      550635.5961               STORAGE =          53.4977
       CONSTANT HEAD =           0.0000         CONSTANT HEAD =           0.0000
            RECHARGE =           0.0000              RECHARGE =           0.0000
      STREAM LEAKAGE =   946039637.8995        STREAM LEAKAGE =     1130197.6812
        MANAGED FLOW =    41820577.1855          MANAGED FLOW =       53483.2959

           TOTAL OUT =   988410850.6811             TOTAL OUT =     1183734.4748

            IN - OUT =        -442.2492              IN - OUT =          -1.9393

 PERCENT DISCREPANCY =           0.00     PERCENT DISCREPANCY =           0.00






          TIME SUMMARY AT END OF TIME STEP   1 IN STRESS PERIOD    9
                    SECONDS     MINUTES      HOURS       DAYS        YEARS
                    -----------------------------------------------------------
   TIME STEP LENGTH 7.94880E+06 1.32480E+05  2208.0      92.000     0.25188    
 STRESS PERIOD TIME 7.94880E+06 1.32480E+05  2208.0      92.000     0.25188    
         TOTAL TIME 7.10208E+07 1.18368E+06  19728.      822.00      2.2505    
1
1
                            STRESS PERIOD NO.   10, LENGTH =   91.00000    
                            -----------------------------------------------

                              NUMBER OF TIME STEPS =     1

                               MULTIPLIER FOR DELT =     1.500

                            INITIAL TIME STEP SIZE =   91.00000    

                 RECHARGE =  2.000000E-03

REUSING STREAM NODES FROM LAST STRESS PERIOD
 
 SOLVING FOR HEAD 


     6 CALLS TO PCG ROUTINE FOR TIME STEP   1 IN STRESS PERIOD   10
    24 TOTAL ITERATIONS

 HEAD/DRAWDOWN PRINTOUT FLAG = 1     TOTAL BUDGET PRINTOUT FLAG = 1
 CELL-BY-CELL FLOW TERM FLAG = 1

 OUTPUT FLAGS FOR ALL LAYERS ARE THE SAME:
   HEAD    DRAWDOWN  HEAD  DRAWDOWN
 PRINTOUT  PRINTOUT  SAVE    SAVE
 ----------------------------------
     0         0       0       0

            LAYER      ROW     COLUMN     STREAM    REACH      FLOW INTO     FLOW INTO     FLOW OUT OF     HEAD IN
                                          NUMBER    NUMBER    STREAM REACH    AQUIFER      STREAM REACH     STREAM


               1        13         1         1         1      100000.0      -27767.84       127767.8          48.65
               1        13         2         1         2      127767.8      -37662.87       165430.7          48.18
               1        14         3         1         3      165430.7      -33157.62       198588.3          47.70
               1        15         4         1         4      198588.3      -32375.37       230963.7          47.23
               1        16         5         1         5      230963.7      -33837.24       264800.9          46.75
               1        16         6         1         6      264800.9      -29515.40       294316.3          46.26
               1        16         7         1         7      294316.3      -29221.72       323538.1          45.78
               1        16         8         1         8      323538.1      -29179.24       352717.3          45.30
               1        16         9         1         9      352717.3      -28791.39       381508.7          44.81
               1        16        10         1        10      381508.7      -27572.70       409081.4          44.33
               1        16        11         1        11      409081.4      -23116.46       432197.8          43.84
               1        16        12         1        12      432197.8      -58221.83       490419.7          40.36
               1        15        13         1        13      490419.7      -28255.48       518675.2          42.88
               1        14        14         1        14      518675.2      -31756.21       550431.4          42.39
               1        13        15         1        15      550431.4      -35112.12       585543.5          41.90
               1        12        16         1        16      585543.5      -42504.51       628048.0          41.42
               1        12        17         1        17      628048.0      -33020.53       661068.5          40.94
               1        12        18         1        18      661068.5      -31657.06       692725.6          40.45
               1        12        19         1        19      692725.6      -36308.67       729034.3          39.96
               1        13        20         1        20      729034.3      -26220.30       755254.5          39.47
               1        14        21         1        21      755254.5      -19894.28       775148.8          38.98
               1        14        22         1        22      775148.8      -6805.633       781954.5          38.49
               1         9        30         2         1      50000.00      -26255.97       76255.97          40.39
               1         9        29         2         2      76255.97      -28686.39       104942.4          40.18
               1         9        28         2         3      104942.4      -32932.34       137874.7          39.96
               1         9        27         2         4      137874.7      -47012.03       184886.7          39.75
               1        10        26         2         5      184886.7      -32171.05       217057.8          39.54
               1        11        25         2         6      217057.8      -22307.85       239365.6          39.31
               1        12        24         2         7      239365.6      -14216.29       253581.9          39.07
               1        13        23         2         8      253581.9      -9354.325       262936.2          38.83
               1        14        22         2         9      262936.2      -9796.899       272733.1          38.34
               1        14        22         3         1      1054688.      -4836.881       1059524.          38.59
               1        15        23         3         2      1059524.      -18462.87       1077987.          37.59
               1        15        24         3         3      1077987.      -13074.15       1091062.          36.60
               1        15        25         3         4      1091062.      -7532.058       1098594.          35.60
               1        15        26         3         5      1098594.      -15785.33       1114379.          34.60
               1        16        27         3         6      1114379.      -27565.58       1141944.          33.61
               1        17        28         3         7      1141944.      -36044.56       1177989.          32.62
               1        18        29         3         8      1177989.      -47798.94       1225788.          31.63
               1        18        30         3         9      1225788.      -44973.91       1270762.          30.65
1
  VOLUMETRIC BUDGET FOR ENTIRE MODEL AT END OF TIME STEP  1 IN STRESS PERIOD  10
  ------------------------------------------------------------------------------

     CUMULATIVE VOLUMES      L**3       RATES FOR THIS TIME STEP      L**3/T
     ------------------                 ------------------------

           IN:                                      IN:
           ---                                      ---
             STORAGE =    20652298.4380               STORAGE =         447.6779
       CONSTANT HEAD =  1053379600.1532         CONSTANT HEAD =     1147902.7634
            RECHARGE =    23901600.0000              RECHARGE =       55200.0000
      STREAM LEAKAGE =           0.0000        STREAM LEAKAGE =           0.0000
        MANAGED FLOW =           0.0000          MANAGED FLOW =           0.0000

            TOTAL IN =  1097933498.5913              TOTAL IN =     1203550.4413

          OUT:                                     OUT:
          ----                                     ----
             STORAGE =      804189.6648               STORAGE =        2786.3084
       CONSTANT HEAD =           0.0000         CONSTANT HEAD =           0.0000
            RECHARGE =           0.0000              RECHARGE =           0.0000
      STREAM LEAKAGE =  1048028969.0698        STREAM LEAKAGE =     1120761.8810
        MANAGED FLOW =    49100577.0967          MANAGED FLOW =       79999.9990

           TOTAL OUT =  1097933735.8313             TOTAL OUT =     1203548.1885

            IN - OUT =        -237.2401              IN - OUT =           2.2528

 PERCENT DISCREPANCY =           0.00     PERCENT DISCREPANCY =           0.00






          TIME SUMMARY AT END OF TIME STEP   1 IN STRESS PERIOD   10
                    SECONDS     MINUTES      HOURS       DAYS        YEARS
                    -----------------------------------------------------------
   TIME STEP LENGTH 7.86240E+06 1.31040E+05  2184.0      91.000     0.24914    
 STRESS PERIOD TIME 7.86240E+06 1.31040E+05  2184.0      91.000     0.24914    
         TOTAL TIME 7.88832E+07 1.31472E+06  21912.      913.00      2.4997    
1
1
                            STRESS PERIOD NO.   11, LENGTH =   91.00000    
                            -----------------------------------------------

                              NUMBER OF TIME STEPS =     1

                               MULTIPLIER FOR DELT =     1.500

                            INITIAL TIME STEP SIZE =   91.00000    

                 RECHARGE =   0.00000    

REUSING STREAM NODES FROM LAST STRESS PERIOD
 
 SOLVING FOR HEAD 


     6 CALLS TO PCG ROUTINE FOR TIME STEP   1 IN STRESS PERIOD   11
    23 TOTAL ITERATIONS

 HEAD/DRAWDOWN PRINTOUT FLAG = 1     TOTAL BUDGET PRINTOUT FLAG = 1
 CELL-BY-CELL FLOW TERM FLAG = 1

 OUTPUT FLAGS FOR ALL LAYERS ARE THE SAME:
   HEAD    DRAWDOWN  HEAD  DRAWDOWN
 PRINTOUT  PRINTOUT  SAVE    SAVE
 ----------------------------------
     0         0       0       0

            LAYER      ROW     COLUMN     STREAM    REACH      FLOW INTO     FLOW INTO     FLOW OUT OF     HEAD IN
                                          NUMBER    NUMBER    STREAM REACH    AQUIFER      STREAM REACH     STREAM


               1        13         1         1         1      100000.0      -26925.41       126925.4          48.65
               1        13         2         1         2      126925.4      -36657.91       163583.3          48.18
               1        14         3         1         3      163583.3      -32172.40       195755.7          47.70
               1        15         4         1         4      195755.7      -31428.27       227184.0          47.22
               1        16         5         1         5      227184.0      -32983.07       260167.1          46.74
               1        16         6         1         6      260167.1      -28775.30       288942.3          46.26
               1        16         7         1         7      288942.3      -28491.87       317434.2          45.78
               1        16         8         1         8      317434.2      -28451.40       345885.6          45.29
               1        16         9         1         9      345885.6      -28069.77       373955.4          44.81
               1        16        10         1        10      373955.4      -26862.32       400817.7          44.32
               1        16        11         1        11      400817.7      -22413.30       423231.0          43.83
               1        16        12         1        12      423231.0      -57442.18       480673.2          40.35
               1        15        13         1        13      480673.2      -27410.87       508084.1          42.87
               1        14        14         1        14      508084.1      -30898.37       538982.4          42.39
               1        13        15         1        15      538982.4      -34256.94       573239.4          41.90
               1        12        16         1        16      573239.4      -41649.41       614888.8          41.42
               1        12        17         1        17      614888.8      -32367.84       647256.6          40.93
               1        12        18         1        18      647256.6      -31063.20       678319.8          40.44
               1        12        19         1        19      678319.8      -35717.07       714036.9          39.96
               1        13        20         1        20      714036.9      -25813.64       739850.5          39.47
               1        14        21         1        21      739850.5      -19707.55       759558.1          38.98
               1        14        22         1        22      759558.1      -7393.406       766951.5          38.48
               1         9        30         2         1      50000.00      -26152.02       76152.02          40.39
               1         9        29         2         2      76152.02      -28606.72       104758.7          40.18
               1         9        28         2         3      104758.7      -32872.98       137631.7          39.96
               1         9        27         2         4      137631.7      -46877.27       184509.0          39.75
               1        10        26         2         5      184509.0      -32794.03       217303.0          39.54
               1        11        25         2         6      217303.0      -24413.38       241716.4          39.31
               1        12        24         2         7      241716.4      -17826.54       259542.9          39.08
               1        13        23         2         8      259542.9      -12371.13       271914.1          38.84
               1        14        22         2         9      271914.1      -10130.97       282045.0          38.35
               1        14        22         3         1      1048997.      -5345.249       1054342.          38.59
               1        15        23         3         2      1054342.      -20070.84       1074413.          37.59
               1        15        24         3         3      1074413.      -17991.98       1092405.          36.60
               1        15        25         3         4      1092405.      -18348.71       1110753.          35.60
               1        15        26         3         5      1110753.      -21667.45       1132421.          34.61
               1        16        27         3         6      1132421.      -28955.51       1161376.          33.62
               1        17        28         3         7      1161376.      -36276.52       1197653.          32.63
               1        18        29         3         8      1197653.      -47566.93       1245220.          31.64
               1        18        30         3         9      1245220.      -44795.76       1290015.          30.65
1
  VOLUMETRIC BUDGET FOR ENTIRE MODEL AT END OF TIME STEP  1 IN STRESS PERIOD  11
  ------------------------------------------------------------------------------

     CUMULATIVE VOLUMES      L**3       RATES FOR THIS TIME STEP      L**3/T
     ------------------                 ------------------------

           IN:                                      IN:
           ---                                      ---
             STORAGE =    20846052.2523               STORAGE =        2129.1628
       CONSTANT HEAD =  1159731548.5259         CONSTANT HEAD =     1168702.7294
            RECHARGE =    23901600.0000              RECHARGE =           0.0000
      STREAM LEAKAGE =           0.0000        STREAM LEAKAGE =           0.0000
        MANAGED FLOW =           0.0000          MANAGED FLOW =           0.0000

            TOTAL IN =  1204479200.7782              TOTAL IN =     1170831.8922

          OUT:                                     OUT:
          ----                                     ----
             STORAGE =      843632.2301               STORAGE =         433.4348
       CONSTANT HEAD =           0.0000         CONSTANT HEAD =           0.0000
            RECHARGE =           0.0000              RECHARGE =           0.0000
      STREAM LEAKAGE =  1151770377.9266        STREAM LEAKAGE =     1140015.4819
        MANAGED FLOW =    51865662.6621          MANAGED FLOW =       30385.5557

           TOTAL OUT =  1204479672.8188             TOTAL OUT =     1170834.4724

            IN - OUT =        -472.0406              IN - OUT =          -2.5802

 PERCENT DISCREPANCY =           0.00     PERCENT DISCREPANCY =           0.00






          TIME SUMMARY AT END OF TIME STEP   1 IN STRESS PERIOD   11
                    SECONDS     MINUTES      HOURS       DAYS        YEARS
                    -----------------------------------------------------------
   TIME STEP LENGTH 7.86240E+06 1.31040E+05  2184.0      91.000     0.24914    
 STRESS PERIOD TIME 7.86240E+06 1.31040E+05  2184.0      91.000     0.24914    
         TOTAL TIME 8.67456E+07 1.44576E+06  24096.      1004.0      2.7488    
1
1
                            STRESS PERIOD NO.   12, LENGTH =   91.00000    
                            -----------------------------------------------

                              NUMBER OF TIME STEPS =     1

                               MULTIPLIER FOR DELT =     1.500

                            INITIAL TIME STEP SIZE =   91.00000    

                 RECHARGE =  1.000000E-03

REUSING STREAM NODES FROM LAST STRESS PERIOD
 
 SOLVING FOR HEAD 


     6 CALLS TO PCG ROUTINE FOR TIME STEP   1 IN STRESS PERIOD   12
    22 TOTAL ITERATIONS

 HEAD/DRAWDOWN PRINTOUT FLAG = 1     TOTAL BUDGET PRINTOUT FLAG = 1
 CELL-BY-CELL FLOW TERM FLAG = 1

 OUTPUT FLAGS FOR ALL LAYERS ARE THE SAME:
   HEAD    DRAWDOWN  HEAD  DRAWDOWN
 PRINTOUT  PRINTOUT  SAVE    SAVE
 ----------------------------------
     0         0       0       0

            LAYER      ROW     COLUMN     STREAM    REACH      FLOW INTO     FLOW INTO     FLOW OUT OF     HEAD IN
                                          NUMBER    NUMBER    STREAM REACH    AQUIFER      STREAM REACH     STREAM


               1        13         1         1         1      100000.0      -27318.34       127318.3          48.65
               1        13         2         1         2      127318.3      -37125.36       164443.7          48.18
               1        14         3         1         3      164443.7      -32634.72       197078.4          47.70
               1        15         4         1         4      197078.4      -31875.47       228953.9          47.22
               1        16         5         1         5      228953.9      -33389.69       262343.6          46.74
               1        16         6         1         6      262343.6      -29128.27       291471.9          46.26
               1        16         7         1         7      291471.9      -28841.22       320313.1          45.78
               1        16         8         1         8      320313.1      -28801.93       349115.0          45.29
               1        16         9         1         9      349115.0      -28420.73       377535.7          44.81
               1        16        10         1        10      377535.7      -27213.39       404749.1          44.32
               1        16        11         1        11      404749.1      -22771.07       427520.2          43.84
               1        16        12         1        12      427520.2      -57864.05       485384.2          40.35
               1        15        13         1        13      485384.2      -27876.74       513261.0          42.87
               1        14        14         1        14      513261.0      -31379.40       544640.4          42.39
               1        13        15         1        15      544640.4      -34731.41       579371.8          41.90
               1        12        16         1        16      579371.8      -42099.40       621471.2          41.42
               1        12        17         1        17      621471.2      -32733.33       654204.5          40.93
               1        12        18         1        18      654204.5      -31409.39       685613.9          40.45
               1        12        19         1        19      685613.9      -36083.19       721697.1          39.96
               1        13        20         1        20      721697.1      -26146.89       747844.0          39.47
               1        14        21         1        21      747844.0      -19975.03       767819.0          38.98
               1        14        22         1        22      767819.0      -7385.567       775204.6          38.49
               1         9        30         2         1      50000.00      -26371.70       76371.70          40.39
               1         9        29         2         2      76371.70      -28821.76       105193.5          40.18
               1         9        28         2         3      105193.5      -33090.02       138283.5          39.96
               1         9        27         2         4      138283.5      -47148.07       185431.5          39.75
               1        10        26         2         5      185431.5      -32960.94       218392.5          39.54
               1        11        25         2         6      218392.5      -24337.34       242729.8          39.31
               1        12        24         2         7      242729.8      -17482.41       260212.2          39.08
               1        13        23         2         8      260212.2      -12076.83       272289.1          38.84
               1        14        22         2         9      272289.1      -10179.71       282468.8          38.35
               1        14        22         3         1      1057673.      -5342.121       1063015.          38.59
               1        15        23         3         2      1063015.      -20028.79       1083044.          37.59
               1        15        24         3         3      1083044.      -17379.20       1100423.          36.60
               1        15        25         3         4      1100423.      -16776.70       1117200.          35.60
               1        15        26         3         5      1117200.      -20937.41       1138138.          34.61
               1        16        27         3         6      1138138.      -28988.04       1167126.          33.62
               1        17        28         3         7      1167126.      -36494.16       1203620.          32.63
               1        18        29         3         8      1203620.      -47836.43       1251456.          31.64
               1        18        30         3         9      1251456.      -45019.18       1296475.          30.66
1
  VOLUMETRIC BUDGET FOR ENTIRE MODEL AT END OF TIME STEP  1 IN STRESS PERIOD  12
  ------------------------------------------------------------------------------

     CUMULATIVE VOLUMES      L**3       RATES FOR THIS TIME STEP      L**3/T
     ------------------                 ------------------------

           IN:                                      IN:
           ---                                      ---
             STORAGE =    20849947.9487               STORAGE =          42.8099
       CONSTANT HEAD =  1265132084.8470         CONSTANT HEAD =     1158247.6519
            RECHARGE =    26413200.0000              RECHARGE =       27600.0000
      STREAM LEAKAGE =           0.0000        STREAM LEAKAGE =           0.0000
        MANAGED FLOW =           0.0000          MANAGED FLOW =           0.0000

            TOTAL IN =  1312395232.7957              TOTAL IN =     1185890.4617

          OUT:                                     OUT:
          ----                                     ----
             STORAGE =      945734.1421               STORAGE =        1121.9990
       CONSTANT HEAD =           0.0000         CONSTANT HEAD =           0.0000
            RECHARGE =           0.0000              RECHARGE =           0.0000
      STREAM LEAKAGE =  1256099639.7737        STREAM LEAKAGE =     1146475.4049
        MANAGED FLOW =    55350170.9443          MANAGED FLOW =       38291.2998

           TOTAL OUT =  1312395544.8601             TOTAL OUT =     1185888.7038

            IN - OUT =        -312.0645              IN - OUT =           1.7580

 PERCENT DISCREPANCY =           0.00     PERCENT DISCREPANCY =           0.00






          TIME SUMMARY AT END OF TIME STEP   1 IN STRESS PERIOD   12
                    SECONDS     MINUTES      HOURS       DAYS        YEARS
                    -----------------------------------------------------------
   TIME STEP LENGTH 7.86240E+06 1.31040E+05  2184.0      91.000     0.24914    
 STRESS PERIOD TIME 7.86240E+06 1.31040E+05  2184.0      91.000     0.24914    
         TOTAL TIME 9.46080E+07 1.57680E+06  26280.      1095.0      2.9979    
1

 Run end date and time (yyyy/mm/dd hh:mm:ss): 2008/09/02  7:59:22
 Elapsed run time:  2.624 Seconds

